clear
new Circuit.source phases=3 bus1=sourcebus basekv=115.000 pu=1.00000 angle=30.00000 r0=0.17960 x0=0.53881 r1=0.16038 x1=0.64151





new Linecode.1p_ug_code4 nphases=1 units=mi rmatrix=[0.405140 ] xmatrix=[0.410718 ] cmatrix=[3.65371 ]
new Linecode.2p_code10 nphases=2 units=mi rmatrix=[0.139476 | 0.0467868 0.140665 ] xmatrix=[0.328574 | 0.117318 0.324642 ] cmatrix=[4.13564 | -0.852854 4.18011 ]
new Linecode.2p_oh_code0 nphases=2 units=mi rmatrix=[0.139476 | 0.0467868 0.140665 ] xmatrix=[0.328574 | 0.117318 0.324642 ] cmatrix=[4.13564 | -0.852854 4.18011 ]
new Linecode.3p_code7 nphases=3 units=mi rmatrix=[0.139476 | 0.0475488 0.142220 | 0.0467868 0.0481584 0.140665 ] xmatrix=[0.328574 | 0.152918 0.319491 | 0.117318 0.129113 0.324642 ] cmatrix=[4.58927 | -1.48103 4.83537 | -0.564473 -0.941462 4.36339 ]
new Linecode.3p_oh_code6 nphases=3 units=mi rmatrix=[0.139476 | 0.0475488 0.142220 | 0.0467868 0.0481584 0.140665 ] xmatrix=[0.328574 | 0.152918 0.319491 | 0.117318 0.129113 0.324642 ] cmatrix=[4.58927 | -1.48103 4.83537 | -0.564473 -0.941462 4.36339 ]
new Linecode.3p_oh_code1 nphases=3 units=mi rmatrix=[0.139476 | 0.0475488 0.142220 | 0.0467868 0.0481584 0.140665 ] xmatrix=[0.328574 | 0.152918 0.319491 | 0.117318 0.129113 0.324642 ] cmatrix=[4.58927 | -1.48103 4.83537 | -0.564473 -0.941462 4.36339 ]
new Linecode.3p_ug_code5 nphases=3 units=mi rmatrix=[0.139476 | 0.0475488 0.142220 | 0.0467868 0.0481584 0.140665 ] xmatrix=[0.328574 | 0.152918 0.319491 | 0.117318 0.129113 0.324642 ] cmatrix=[4.58927 | -1.48103 4.83537 | -0.564473 -0.941462 4.36339 ]
new Linecode.1p_oh_code3 nphases=1 units=mi rmatrix=[0.405140 ] xmatrix=[0.410718 ] cmatrix=[3.65371 ]
new Linecode.2p_oh_code2 nphases=2 units=mi rmatrix=[0.139476 | 0.0467868 0.140665 ] xmatrix=[0.328574 | 0.117318 0.324642 ] cmatrix=[4.13564 | -0.852854 4.18011 ]


new Xfmrcode.cimxfmrcode_xfmr_611_c_2 windings=3 phases=1 xhl=2.040000 xht=2.040000 xlt=0.136000 %imag=0.000 %noloadloss=0.000
~ wdg=1 conn=w kv=2.400 kva=10000.0 %r=0.003000
~ wdg=2 conn=w kv=0.120 kva=1000.0 %r=0.000600
~ wdg=3 conn=w kv=0.120 kva=1000.0 %r=0.000600
new Xfmrcode.cimxfmrcode_xfmr_684_c_2 windings=3 phases=1 xhl=2.040000 xht=2.040000 xlt=0.136000 %imag=0.000 %noloadloss=0.000
~ wdg=1 conn=w kv=2.400 kva=10000.0 %r=0.003000
~ wdg=2 conn=w kv=0.120 kva=1000.0 %r=0.000600
~ wdg=3 conn=w kv=0.120 kva=1000.0 %r=0.000600
new Xfmrcode.cimxfmrcode_xfmr_611_c_1 windings=3 phases=1 xhl=2.040000 xht=2.040000 xlt=0.136000 %imag=0.000 %noloadloss=0.000
~ wdg=1 conn=w kv=2.400 kva=10000.0 %r=0.003000
~ wdg=2 conn=w kv=0.120 kva=1000.0 %r=0.000600
~ wdg=3 conn=w kv=0.120 kva=1000.0 %r=0.000600
new Xfmrcode.cimxfmrcode_xfmr_684_c_1 windings=3 phases=1 xhl=2.040000 xht=2.040000 xlt=0.136000 %imag=0.000 %noloadloss=0.000
~ wdg=1 conn=w kv=2.400 kva=10000.0 %r=0.003000
~ wdg=2 conn=w kv=0.120 kva=1000.0 %r=0.000600
~ wdg=3 conn=w kv=0.120 kva=1000.0 %r=0.000600
new Xfmrcode.cimxfmrcode_xfmr_611_c_4 windings=3 phases=1 xhl=2.040000 xht=2.040000 xlt=0.136000 %imag=0.000 %noloadloss=0.000
~ wdg=1 conn=w kv=2.400 kva=10000.0 %r=0.003000
~ wdg=2 conn=w kv=0.120 kva=1000.0 %r=0.000600
~ wdg=3 conn=w kv=0.120 kva=1000.0 %r=0.000600
new Xfmrcode.cimxfmrcode_xfmr_671_a_5 windings=3 phases=1 xhl=2.040000 xht=2.040000 xlt=0.136000 %imag=0.000 %noloadloss=0.000
~ wdg=1 conn=w kv=2.400 kva=10000.0 %r=0.003000
~ wdg=2 conn=w kv=0.120 kva=1000.0 %r=0.000600
~ wdg=3 conn=w kv=0.120 kva=1000.0 %r=0.000600
new Xfmrcode.cimxfmrcode_xfmr_684_c_4 windings=3 phases=1 xhl=2.040000 xht=2.040000 xlt=0.136000 %imag=0.000 %noloadloss=0.000
~ wdg=1 conn=w kv=2.400 kva=10000.0 %r=0.003000
~ wdg=2 conn=w kv=0.120 kva=1000.0 %r=0.000600
~ wdg=3 conn=w kv=0.120 kva=1000.0 %r=0.000600
new Xfmrcode.cimxfmrcode_xfmr_611_c_3 windings=3 phases=1 xhl=2.040000 xht=2.040000 xlt=0.136000 %imag=0.000 %noloadloss=0.000
~ wdg=1 conn=w kv=2.400 kva=10000.0 %r=0.003000
~ wdg=2 conn=w kv=0.120 kva=1000.0 %r=0.000600
~ wdg=3 conn=w kv=0.120 kva=1000.0 %r=0.000600
new Xfmrcode.cimxfmrcode_xfmr_684_c_3 windings=3 phases=1 xhl=2.040000 xht=2.040000 xlt=0.136000 %imag=0.000 %noloadloss=0.000
~ wdg=1 conn=w kv=2.400 kva=10000.0 %r=0.003000
~ wdg=2 conn=w kv=0.120 kva=1000.0 %r=0.000600
~ wdg=3 conn=w kv=0.120 kva=1000.0 %r=0.000600
new Xfmrcode.cimxfmrcode_xfmr_633_b_4 windings=3 phases=1 xhl=2.040000 xht=2.040000 xlt=0.136000 %imag=0.000 %noloadloss=0.000
~ wdg=1 conn=w kv=2.400 kva=10000.0 %r=0.003000
~ wdg=2 conn=w kv=0.120 kva=1000.0 %r=0.000600
~ wdg=3 conn=w kv=0.120 kva=1000.0 %r=0.000600
new Xfmrcode.cimxfmrcode_xfmr_671_a_3 windings=3 phases=1 xhl=2.040000 xht=2.040000 xlt=0.136000 %imag=0.000 %noloadloss=0.000
~ wdg=1 conn=w kv=2.400 kva=10000.0 %r=0.003000
~ wdg=2 conn=w kv=0.120 kva=1000.0 %r=0.000600
~ wdg=3 conn=w kv=0.120 kva=1000.0 %r=0.000600
new Xfmrcode.cimxfmrcode_xfmr_611_c_5 windings=3 phases=1 xhl=2.040000 xht=2.040000 xlt=0.136000 %imag=0.000 %noloadloss=0.000
~ wdg=1 conn=w kv=2.400 kva=10000.0 %r=0.003000
~ wdg=2 conn=w kv=0.120 kva=1000.0 %r=0.000600
~ wdg=3 conn=w kv=0.120 kva=1000.0 %r=0.000600
new Xfmrcode.cimxfmrcode_xfmr_633_b_5 windings=3 phases=1 xhl=2.040000 xht=2.040000 xlt=0.136000 %imag=0.000 %noloadloss=0.000
~ wdg=1 conn=w kv=2.400 kva=10000.0 %r=0.003000
~ wdg=2 conn=w kv=0.120 kva=1000.0 %r=0.000600
~ wdg=3 conn=w kv=0.120 kva=1000.0 %r=0.000600
new Xfmrcode.cimxfmrcode_xfmr_671_a_4 windings=3 phases=1 xhl=2.040000 xht=2.040000 xlt=0.136000 %imag=0.000 %noloadloss=0.000
~ wdg=1 conn=w kv=2.400 kva=10000.0 %r=0.003000
~ wdg=2 conn=w kv=0.120 kva=1000.0 %r=0.000600
~ wdg=3 conn=w kv=0.120 kva=1000.0 %r=0.000600
new Xfmrcode.cimxfmrcode_xfmr_633_b_2 windings=3 phases=1 xhl=2.040000 xht=2.040000 xlt=0.136000 %imag=0.000 %noloadloss=0.000
~ wdg=1 conn=w kv=2.400 kva=10000.0 %r=0.003000
~ wdg=2 conn=w kv=0.120 kva=1000.0 %r=0.000600
~ wdg=3 conn=w kv=0.120 kva=1000.0 %r=0.000600
new Xfmrcode.cimxfmrcode_xfmr_671_a_1 windings=3 phases=1 xhl=2.040000 xht=2.040000 xlt=0.136000 %imag=0.000 %noloadloss=0.000
~ wdg=1 conn=w kv=2.400 kva=10000.0 %r=0.003000
~ wdg=2 conn=w kv=0.120 kva=1000.0 %r=0.000600
~ wdg=3 conn=w kv=0.120 kva=1000.0 %r=0.000600
new Xfmrcode.cimxfmrcode_xfmr_633_b_3 windings=3 phases=1 xhl=2.040000 xht=2.040000 xlt=0.136000 %imag=0.000 %noloadloss=0.000
~ wdg=1 conn=w kv=2.400 kva=10000.0 %r=0.003000
~ wdg=2 conn=w kv=0.120 kva=1000.0 %r=0.000600
~ wdg=3 conn=w kv=0.120 kva=1000.0 %r=0.000600
new Xfmrcode.cimxfmrcode_xfmr_671_a_2 windings=3 phases=1 xhl=2.040000 xht=2.040000 xlt=0.136000 %imag=0.000 %noloadloss=0.000
~ wdg=1 conn=w kv=2.400 kva=10000.0 %r=0.003000
~ wdg=2 conn=w kv=0.120 kva=1000.0 %r=0.000600
~ wdg=3 conn=w kv=0.120 kva=1000.0 %r=0.000600
new Xfmrcode.cimxfmrcode_xfmr_633_b_1 windings=3 phases=1 xhl=2.040000 xht=2.040000 xlt=0.136000 %imag=0.000 %noloadloss=0.000
~ wdg=1 conn=w kv=2.400 kva=10000.0 %r=0.003000
~ wdg=2 conn=w kv=0.120 kva=1000.0 %r=0.000600
~ wdg=3 conn=w kv=0.120 kva=1000.0 %r=0.000600
new Xfmrcode.cimxfmrcode_xfmr_684_c_5 windings=3 phases=1 xhl=2.040000 xht=2.040000 xlt=0.136000 %imag=0.000 %noloadloss=0.000
~ wdg=1 conn=w kv=2.400 kva=10000.0 %r=0.003000
~ wdg=2 conn=w kv=0.120 kva=1000.0 %r=0.000600
~ wdg=3 conn=w kv=0.120 kva=1000.0 %r=0.000600
new Xfmrcode.cimxfmrcode_xfmr_645_b_5 windings=3 phases=1 xhl=2.040000 xht=2.040000 xlt=0.136000 %imag=0.000 %noloadloss=0.000
~ wdg=1 conn=w kv=2.400 kva=10000.0 %r=0.003000
~ wdg=2 conn=w kv=0.120 kva=1000.0 %r=0.000600
~ wdg=3 conn=w kv=0.120 kva=1000.0 %r=0.000600
new Xfmrcode.cimxfmrcode_xfmr_645_b_4 windings=3 phases=1 xhl=2.040000 xht=2.040000 xlt=0.136000 %imag=0.000 %noloadloss=0.000
~ wdg=1 conn=w kv=2.400 kva=10000.0 %r=0.003000
~ wdg=2 conn=w kv=0.120 kva=1000.0 %r=0.000600
~ wdg=3 conn=w kv=0.120 kva=1000.0 %r=0.000600
new Xfmrcode.cimxfmrcode_xfmr_645_b_3 windings=3 phases=1 xhl=2.040000 xht=2.040000 xlt=0.136000 %imag=0.000 %noloadloss=0.000
~ wdg=1 conn=w kv=2.400 kva=10000.0 %r=0.003000
~ wdg=2 conn=w kv=0.120 kva=1000.0 %r=0.000600
~ wdg=3 conn=w kv=0.120 kva=1000.0 %r=0.000600
new Xfmrcode.cimxfmrcode_xfmr_645_b_2 windings=3 phases=1 xhl=2.040000 xht=2.040000 xlt=0.136000 %imag=0.000 %noloadloss=0.000
~ wdg=1 conn=w kv=2.400 kva=10000.0 %r=0.003000
~ wdg=2 conn=w kv=0.120 kva=1000.0 %r=0.000600
~ wdg=3 conn=w kv=0.120 kva=1000.0 %r=0.000600
new Xfmrcode.cimxfmrcode_xfmr_645_b_1 windings=3 phases=1 xhl=2.040000 xht=2.040000 xlt=0.136000 %imag=0.000 %noloadloss=0.000
~ wdg=1 conn=w kv=2.400 kva=10000.0 %r=0.003000
~ wdg=2 conn=w kv=0.120 kva=1000.0 %r=0.000600
~ wdg=3 conn=w kv=0.120 kva=1000.0 %r=0.000600
new Xfmrcode.cimxfmrcode_xfmr_692_b_5 windings=3 phases=1 xhl=2.040000 xht=2.040000 xlt=0.136000 %imag=0.000 %noloadloss=0.000
~ wdg=1 conn=w kv=2.400 kva=10000.0 %r=0.003000
~ wdg=2 conn=w kv=0.120 kva=1000.0 %r=0.000600
~ wdg=3 conn=w kv=0.120 kva=1000.0 %r=0.000600
new Xfmrcode.cimxfmrcode_xfmr_692_b_2 windings=3 phases=1 xhl=2.040000 xht=2.040000 xlt=0.136000 %imag=0.000 %noloadloss=0.000
~ wdg=1 conn=w kv=2.400 kva=10000.0 %r=0.003000
~ wdg=2 conn=w kv=0.120 kva=1000.0 %r=0.000600
~ wdg=3 conn=w kv=0.120 kva=1000.0 %r=0.000600
new Xfmrcode.cimxfmrcode_xfmr_692_b_1 windings=3 phases=1 xhl=2.040000 xht=2.040000 xlt=0.136000 %imag=0.000 %noloadloss=0.000
~ wdg=1 conn=w kv=2.400 kva=10000.0 %r=0.003000
~ wdg=2 conn=w kv=0.120 kva=1000.0 %r=0.000600
~ wdg=3 conn=w kv=0.120 kva=1000.0 %r=0.000600
new Xfmrcode.cimxfmrcode_xfmr_692_b_4 windings=3 phases=1 xhl=2.040000 xht=2.040000 xlt=0.136000 %imag=0.000 %noloadloss=0.000
~ wdg=1 conn=w kv=2.400 kva=10000.0 %r=0.003000
~ wdg=2 conn=w kv=0.120 kva=1000.0 %r=0.000600
~ wdg=3 conn=w kv=0.120 kva=1000.0 %r=0.000600
new Xfmrcode.cimxfmrcode_xfmr_692_b_3 windings=3 phases=1 xhl=2.040000 xht=2.040000 xlt=0.136000 %imag=0.000 %noloadloss=0.000
~ wdg=1 conn=w kv=2.400 kva=10000.0 %r=0.003000
~ wdg=2 conn=w kv=0.120 kva=1000.0 %r=0.000600
~ wdg=3 conn=w kv=0.120 kva=1000.0 %r=0.000600
new Xfmrcode.cimxfmrcode_xfmr_652_a_1 windings=3 phases=1 xhl=2.040000 xht=2.040000 xlt=0.136000 %imag=0.000 %noloadloss=0.000
~ wdg=1 conn=w kv=2.400 kva=10000.0 %r=0.003000
~ wdg=2 conn=w kv=0.120 kva=1000.0 %r=0.000600
~ wdg=3 conn=w kv=0.120 kva=1000.0 %r=0.000600
new Xfmrcode.cimxfmrcode_xfmr_652_a_4 windings=3 phases=1 xhl=2.040000 xht=2.040000 xlt=0.136000 %imag=0.000 %noloadloss=0.000
~ wdg=1 conn=w kv=2.400 kva=10000.0 %r=0.003000
~ wdg=2 conn=w kv=0.120 kva=1000.0 %r=0.000600
~ wdg=3 conn=w kv=0.120 kva=1000.0 %r=0.000600
new Xfmrcode.cimxfmrcode_xfmr_652_a_5 windings=3 phases=1 xhl=2.040000 xht=2.040000 xlt=0.136000 %imag=0.000 %noloadloss=0.000
~ wdg=1 conn=w kv=2.400 kva=10000.0 %r=0.003000
~ wdg=2 conn=w kv=0.120 kva=1000.0 %r=0.000600
~ wdg=3 conn=w kv=0.120 kva=1000.0 %r=0.000600
new Xfmrcode.cimxfmrcode_xfmr_652_a_2 windings=3 phases=1 xhl=2.040000 xht=2.040000 xlt=0.136000 %imag=0.000 %noloadloss=0.000
~ wdg=1 conn=w kv=2.400 kva=10000.0 %r=0.003000
~ wdg=2 conn=w kv=0.120 kva=1000.0 %r=0.000600
~ wdg=3 conn=w kv=0.120 kva=1000.0 %r=0.000600
new Xfmrcode.cimxfmrcode_xfmr_652_a_3 windings=3 phases=1 xhl=2.040000 xht=2.040000 xlt=0.136000 %imag=0.000 %noloadloss=0.000
~ wdg=1 conn=w kv=2.400 kva=10000.0 %r=0.003000
~ wdg=2 conn=w kv=0.120 kva=1000.0 %r=0.000600
~ wdg=3 conn=w kv=0.120 kva=1000.0 %r=0.000600
new Xfmrcode.fdrxfmr windings=2 phases=3 xhl=2.000000 %imag=1.100 %noloadloss=0.000
~ wdg=1 conn=w kv=4.160 kva=500.0 %r=0.550000
~ wdg=2 conn=w kv=0.480 kva=500.0 %r=0.550000
new Xfmrcode.cimxfmrcode_xfmr_671_b_4 windings=3 phases=1 xhl=2.040000 xht=2.040000 xlt=0.136000 %imag=0.000 %noloadloss=0.000
~ wdg=1 conn=w kv=2.400 kva=10000.0 %r=0.003000
~ wdg=2 conn=w kv=0.120 kva=1000.0 %r=0.000600
~ wdg=3 conn=w kv=0.120 kva=1000.0 %r=0.000600
new Xfmrcode.cimxfmrcode_xfmr_671_b_5 windings=3 phases=1 xhl=2.040000 xht=2.040000 xlt=0.136000 %imag=0.000 %noloadloss=0.000
~ wdg=1 conn=w kv=2.400 kva=10000.0 %r=0.003000
~ wdg=2 conn=w kv=0.120 kva=1000.0 %r=0.000600
~ wdg=3 conn=w kv=0.120 kva=1000.0 %r=0.000600
new Xfmrcode.cimxfmrcode_xfmr_633_a_5 windings=3 phases=1 xhl=2.040000 xht=2.040000 xlt=0.136000 %imag=0.000 %noloadloss=0.000
~ wdg=1 conn=w kv=2.400 kva=10000.0 %r=0.003000
~ wdg=2 conn=w kv=0.120 kva=1000.0 %r=0.000600
~ wdg=3 conn=w kv=0.120 kva=1000.0 %r=0.000600
new Xfmrcode.cimxfmrcode_xfmr_671_b_2 windings=3 phases=1 xhl=2.040000 xht=2.040000 xlt=0.136000 %imag=0.000 %noloadloss=0.000
~ wdg=1 conn=w kv=2.400 kva=10000.0 %r=0.003000
~ wdg=2 conn=w kv=0.120 kva=1000.0 %r=0.000600
~ wdg=3 conn=w kv=0.120 kva=1000.0 %r=0.000600
new Xfmrcode.cimxfmrcode_xfmr_671_b_3 windings=3 phases=1 xhl=2.040000 xht=2.040000 xlt=0.136000 %imag=0.000 %noloadloss=0.000
~ wdg=1 conn=w kv=2.400 kva=10000.0 %r=0.003000
~ wdg=2 conn=w kv=0.120 kva=1000.0 %r=0.000600
~ wdg=3 conn=w kv=0.120 kva=1000.0 %r=0.000600
new Xfmrcode.cimxfmrcode_xfmr_633_a_3 windings=3 phases=1 xhl=2.040000 xht=2.040000 xlt=0.136000 %imag=0.000 %noloadloss=0.000
~ wdg=1 conn=w kv=2.400 kva=10000.0 %r=0.003000
~ wdg=2 conn=w kv=0.120 kva=1000.0 %r=0.000600
~ wdg=3 conn=w kv=0.120 kva=1000.0 %r=0.000600
new Xfmrcode.cimxfmrcode_xfmr_632_c_1 windings=3 phases=1 xhl=2.040000 xht=2.040000 xlt=0.136000 %imag=0.000 %noloadloss=0.000
~ wdg=1 conn=w kv=2.400 kva=10000.0 %r=0.003000
~ wdg=2 conn=w kv=0.120 kva=1000.0 %r=0.000600
~ wdg=3 conn=w kv=0.120 kva=1000.0 %r=0.000600
new Xfmrcode.cimxfmrcode_xfmr_633_a_4 windings=3 phases=1 xhl=2.040000 xht=2.040000 xlt=0.136000 %imag=0.000 %noloadloss=0.000
~ wdg=1 conn=w kv=2.400 kva=10000.0 %r=0.003000
~ wdg=2 conn=w kv=0.120 kva=1000.0 %r=0.000600
~ wdg=3 conn=w kv=0.120 kva=1000.0 %r=0.000600
new Xfmrcode.cimxfmrcode_xfmr_671_b_1 windings=3 phases=1 xhl=2.040000 xht=2.040000 xlt=0.136000 %imag=0.000 %noloadloss=0.000
~ wdg=1 conn=w kv=2.400 kva=10000.0 %r=0.003000
~ wdg=2 conn=w kv=0.120 kva=1000.0 %r=0.000600
~ wdg=3 conn=w kv=0.120 kva=1000.0 %r=0.000600
new Xfmrcode.cimxfmrcode_xfmr_632_c_2 windings=3 phases=1 xhl=2.040000 xht=2.040000 xlt=0.136000 %imag=0.000 %noloadloss=0.000
~ wdg=1 conn=w kv=2.400 kva=10000.0 %r=0.003000
~ wdg=2 conn=w kv=0.120 kva=1000.0 %r=0.000600
~ wdg=3 conn=w kv=0.120 kva=1000.0 %r=0.000600
new Xfmrcode.cimxfmrcode_xfmr_633_a_1 windings=3 phases=1 xhl=2.040000 xht=2.040000 xlt=0.136000 %imag=0.000 %noloadloss=0.000
~ wdg=1 conn=w kv=2.400 kva=10000.0 %r=0.003000
~ wdg=2 conn=w kv=0.120 kva=1000.0 %r=0.000600
~ wdg=3 conn=w kv=0.120 kva=1000.0 %r=0.000600
new Xfmrcode.cimxfmrcode_xfmr_632_c_3 windings=3 phases=1 xhl=2.040000 xht=2.040000 xlt=0.136000 %imag=0.000 %noloadloss=0.000
~ wdg=1 conn=w kv=2.400 kva=10000.0 %r=0.003000
~ wdg=2 conn=w kv=0.120 kva=1000.0 %r=0.000600
~ wdg=3 conn=w kv=0.120 kva=1000.0 %r=0.000600
new Xfmrcode.cimxfmrcode_xfmr_633_a_2 windings=3 phases=1 xhl=2.040000 xht=2.040000 xlt=0.136000 %imag=0.000 %noloadloss=0.000
~ wdg=1 conn=w kv=2.400 kva=10000.0 %r=0.003000
~ wdg=2 conn=w kv=0.120 kva=1000.0 %r=0.000600
~ wdg=3 conn=w kv=0.120 kva=1000.0 %r=0.000600
new Xfmrcode.cimxfmrcode_xfmr_632_c_4 windings=3 phases=1 xhl=2.040000 xht=2.040000 xlt=0.136000 %imag=0.000 %noloadloss=0.000
~ wdg=1 conn=w kv=2.400 kva=10000.0 %r=0.003000
~ wdg=2 conn=w kv=0.120 kva=1000.0 %r=0.000600
~ wdg=3 conn=w kv=0.120 kva=1000.0 %r=0.000600
new Xfmrcode.cimxfmrcode_xfmr_632_c_5 windings=3 phases=1 xhl=2.040000 xht=2.040000 xlt=0.136000 %imag=0.000 %noloadloss=0.000
~ wdg=1 conn=w kv=2.400 kva=10000.0 %r=0.003000
~ wdg=2 conn=w kv=0.120 kva=1000.0 %r=0.000600
~ wdg=3 conn=w kv=0.120 kva=1000.0 %r=0.000600
new Xfmrcode.cimxfmrcode_xfmr_680_a_3 windings=3 phases=1 xhl=2.040000 xht=2.040000 xlt=0.136000 %imag=0.000 %noloadloss=0.000
~ wdg=1 conn=w kv=2.400 kva=10000.0 %r=0.003000
~ wdg=2 conn=w kv=0.120 kva=1000.0 %r=0.000600
~ wdg=3 conn=w kv=0.120 kva=1000.0 %r=0.000600
new Xfmrcode.cimxfmrcode_xfmr_680_a_4 windings=3 phases=1 xhl=2.040000 xht=2.040000 xlt=0.136000 %imag=0.000 %noloadloss=0.000
~ wdg=1 conn=w kv=2.400 kva=10000.0 %r=0.003000
~ wdg=2 conn=w kv=0.120 kva=1000.0 %r=0.000600
~ wdg=3 conn=w kv=0.120 kva=1000.0 %r=0.000600
new Xfmrcode.cimxfmrcode_xfmr_680_a_5 windings=3 phases=1 xhl=2.040000 xht=2.040000 xlt=0.136000 %imag=0.000 %noloadloss=0.000
~ wdg=1 conn=w kv=2.400 kva=10000.0 %r=0.003000
~ wdg=2 conn=w kv=0.120 kva=1000.0 %r=0.000600
~ wdg=3 conn=w kv=0.120 kva=1000.0 %r=0.000600
new Xfmrcode.cimxfmrcode_xfmr_645_c_5 windings=3 phases=1 xhl=2.040000 xht=2.040000 xlt=0.136000 %imag=0.000 %noloadloss=0.000
~ wdg=1 conn=w kv=2.400 kva=10000.0 %r=0.003000
~ wdg=2 conn=w kv=0.120 kva=1000.0 %r=0.000600
~ wdg=3 conn=w kv=0.120 kva=1000.0 %r=0.000600
new Xfmrcode.cimxfmrcode_xfmr_680_a_1 windings=3 phases=1 xhl=2.040000 xht=2.040000 xlt=0.136000 %imag=0.000 %noloadloss=0.000
~ wdg=1 conn=w kv=2.400 kva=10000.0 %r=0.003000
~ wdg=2 conn=w kv=0.120 kva=1000.0 %r=0.000600
~ wdg=3 conn=w kv=0.120 kva=1000.0 %r=0.000600
new Xfmrcode.cimxfmrcode_xfmr_645_c_4 windings=3 phases=1 xhl=2.040000 xht=2.040000 xlt=0.136000 %imag=0.000 %noloadloss=0.000
~ wdg=1 conn=w kv=2.400 kva=10000.0 %r=0.003000
~ wdg=2 conn=w kv=0.120 kva=1000.0 %r=0.000600
~ wdg=3 conn=w kv=0.120 kva=1000.0 %r=0.000600
new Xfmrcode.cimxfmrcode_xfmr_680_a_2 windings=3 phases=1 xhl=2.040000 xht=2.040000 xlt=0.136000 %imag=0.000 %noloadloss=0.000
~ wdg=1 conn=w kv=2.400 kva=10000.0 %r=0.003000
~ wdg=2 conn=w kv=0.120 kva=1000.0 %r=0.000600
~ wdg=3 conn=w kv=0.120 kva=1000.0 %r=0.000600
new Xfmrcode.cimxfmrcode_xfmr_645_c_3 windings=3 phases=1 xhl=2.040000 xht=2.040000 xlt=0.136000 %imag=0.000 %noloadloss=0.000
~ wdg=1 conn=w kv=2.400 kva=10000.0 %r=0.003000
~ wdg=2 conn=w kv=0.120 kva=1000.0 %r=0.000600
~ wdg=3 conn=w kv=0.120 kva=1000.0 %r=0.000600
new Xfmrcode.cimxfmrcode_xfmr_675_c_5 windings=3 phases=1 xhl=2.040000 xht=2.040000 xlt=0.136000 %imag=0.000 %noloadloss=0.000
~ wdg=1 conn=w kv=2.400 kva=10000.0 %r=0.003000
~ wdg=2 conn=w kv=0.120 kva=1000.0 %r=0.000600
~ wdg=3 conn=w kv=0.120 kva=1000.0 %r=0.000600
new Xfmrcode.cimxfmrcode_xfmr_645_c_2 windings=3 phases=1 xhl=2.040000 xht=2.040000 xlt=0.136000 %imag=0.000 %noloadloss=0.000
~ wdg=1 conn=w kv=2.400 kva=10000.0 %r=0.003000
~ wdg=2 conn=w kv=0.120 kva=1000.0 %r=0.000600
~ wdg=3 conn=w kv=0.120 kva=1000.0 %r=0.000600
new Xfmrcode.cimxfmrcode_xfmr_645_c_1 windings=3 phases=1 xhl=2.040000 xht=2.040000 xlt=0.136000 %imag=0.000 %noloadloss=0.000
~ wdg=1 conn=w kv=2.400 kva=10000.0 %r=0.003000
~ wdg=2 conn=w kv=0.120 kva=1000.0 %r=0.000600
~ wdg=3 conn=w kv=0.120 kva=1000.0 %r=0.000600
new Xfmrcode.cimxfmrcode_xfmr_675_c_3 windings=3 phases=1 xhl=2.040000 xht=2.040000 xlt=0.136000 %imag=0.000 %noloadloss=0.000
~ wdg=1 conn=w kv=2.400 kva=10000.0 %r=0.003000
~ wdg=2 conn=w kv=0.120 kva=1000.0 %r=0.000600
~ wdg=3 conn=w kv=0.120 kva=1000.0 %r=0.000600
new Xfmrcode.cimxfmrcode_xfmr_675_c_4 windings=3 phases=1 xhl=2.040000 xht=2.040000 xlt=0.136000 %imag=0.000 %noloadloss=0.000
~ wdg=1 conn=w kv=2.400 kva=10000.0 %r=0.003000
~ wdg=2 conn=w kv=0.120 kva=1000.0 %r=0.000600
~ wdg=3 conn=w kv=0.120 kva=1000.0 %r=0.000600
new Xfmrcode.cimxfmrcode_xfmr_675_c_1 windings=3 phases=1 xhl=2.040000 xht=2.040000 xlt=0.136000 %imag=0.000 %noloadloss=0.000
~ wdg=1 conn=w kv=2.400 kva=10000.0 %r=0.003000
~ wdg=2 conn=w kv=0.120 kva=1000.0 %r=0.000600
~ wdg=3 conn=w kv=0.120 kva=1000.0 %r=0.000600
new Xfmrcode.cimxfmrcode_xfmr_692_c_5 windings=3 phases=1 xhl=2.040000 xht=2.040000 xlt=0.136000 %imag=0.000 %noloadloss=0.000
~ wdg=1 conn=w kv=2.400 kva=10000.0 %r=0.003000
~ wdg=2 conn=w kv=0.120 kva=1000.0 %r=0.000600
~ wdg=3 conn=w kv=0.120 kva=1000.0 %r=0.000600
new Xfmrcode.cimxfmrcode_xfmr_675_c_2 windings=3 phases=1 xhl=2.040000 xht=2.040000 xlt=0.136000 %imag=0.000 %noloadloss=0.000
~ wdg=1 conn=w kv=2.400 kva=10000.0 %r=0.003000
~ wdg=2 conn=w kv=0.120 kva=1000.0 %r=0.000600
~ wdg=3 conn=w kv=0.120 kva=1000.0 %r=0.000600
new Xfmrcode.cimxfmrcode_xfmr_692_c_4 windings=3 phases=1 xhl=2.040000 xht=2.040000 xlt=0.136000 %imag=0.000 %noloadloss=0.000
~ wdg=1 conn=w kv=2.400 kva=10000.0 %r=0.003000
~ wdg=2 conn=w kv=0.120 kva=1000.0 %r=0.000600
~ wdg=3 conn=w kv=0.120 kva=1000.0 %r=0.000600
new Xfmrcode.cimxfmrcode_xfmr_692_c_1 windings=3 phases=1 xhl=2.040000 xht=2.040000 xlt=0.136000 %imag=0.000 %noloadloss=0.000
~ wdg=1 conn=w kv=2.400 kva=10000.0 %r=0.003000
~ wdg=2 conn=w kv=0.120 kva=1000.0 %r=0.000600
~ wdg=3 conn=w kv=0.120 kva=1000.0 %r=0.000600
new Xfmrcode.cimxfmrcode_xfmr_692_c_3 windings=3 phases=1 xhl=2.040000 xht=2.040000 xlt=0.136000 %imag=0.000 %noloadloss=0.000
~ wdg=1 conn=w kv=2.400 kva=10000.0 %r=0.003000
~ wdg=2 conn=w kv=0.120 kva=1000.0 %r=0.000600
~ wdg=3 conn=w kv=0.120 kva=1000.0 %r=0.000600
new Xfmrcode.cimxfmrcode_xfmr_692_c_2 windings=3 phases=1 xhl=2.040000 xht=2.040000 xlt=0.136000 %imag=0.000 %noloadloss=0.000
~ wdg=1 conn=w kv=2.400 kva=10000.0 %r=0.003000
~ wdg=2 conn=w kv=0.120 kva=1000.0 %r=0.000600
~ wdg=3 conn=w kv=0.120 kva=1000.0 %r=0.000600
new Xfmrcode.cimxfmrcode_xfmr_671_c_5 windings=3 phases=1 xhl=2.040000 xht=2.040000 xlt=0.136000 %imag=0.000 %noloadloss=0.000
~ wdg=1 conn=w kv=2.400 kva=10000.0 %r=0.003000
~ wdg=2 conn=w kv=0.120 kva=1000.0 %r=0.000600
~ wdg=3 conn=w kv=0.120 kva=1000.0 %r=0.000600
new Xfmrcode.cimxfmrcode_xfmr_684_a_4 windings=3 phases=1 xhl=2.040000 xht=2.040000 xlt=0.136000 %imag=0.000 %noloadloss=0.000
~ wdg=1 conn=w kv=2.400 kva=10000.0 %r=0.003000
~ wdg=2 conn=w kv=0.120 kva=1000.0 %r=0.000600
~ wdg=3 conn=w kv=0.120 kva=1000.0 %r=0.000600
new Xfmrcode.cimxfmrcode_xfmr_684_a_3 windings=3 phases=1 xhl=2.040000 xht=2.040000 xlt=0.136000 %imag=0.000 %noloadloss=0.000
~ wdg=1 conn=w kv=2.400 kva=10000.0 %r=0.003000
~ wdg=2 conn=w kv=0.120 kva=1000.0 %r=0.000600
~ wdg=3 conn=w kv=0.120 kva=1000.0 %r=0.000600
new Xfmrcode.cimxfmrcode_xfmr_671_c_3 windings=3 phases=1 xhl=2.040000 xht=2.040000 xlt=0.136000 %imag=0.000 %noloadloss=0.000
~ wdg=1 conn=w kv=2.400 kva=10000.0 %r=0.003000
~ wdg=2 conn=w kv=0.120 kva=1000.0 %r=0.000600
~ wdg=3 conn=w kv=0.120 kva=1000.0 %r=0.000600
new Xfmrcode.cimxfmrcode_xfmr_671_c_4 windings=3 phases=1 xhl=2.040000 xht=2.040000 xlt=0.136000 %imag=0.000 %noloadloss=0.000
~ wdg=1 conn=w kv=2.400 kva=10000.0 %r=0.003000
~ wdg=2 conn=w kv=0.120 kva=1000.0 %r=0.000600
~ wdg=3 conn=w kv=0.120 kva=1000.0 %r=0.000600
new Xfmrcode.cimxfmrcode_xfmr_684_a_5 windings=3 phases=1 xhl=2.040000 xht=2.040000 xlt=0.136000 %imag=0.000 %noloadloss=0.000
~ wdg=1 conn=w kv=2.400 kva=10000.0 %r=0.003000
~ wdg=2 conn=w kv=0.120 kva=1000.0 %r=0.000600
~ wdg=3 conn=w kv=0.120 kva=1000.0 %r=0.000600
new Xfmrcode.cimxfmrcode_xfmr_671_c_1 windings=3 phases=1 xhl=2.040000 xht=2.040000 xlt=0.136000 %imag=0.000 %noloadloss=0.000
~ wdg=1 conn=w kv=2.400 kva=10000.0 %r=0.003000
~ wdg=2 conn=w kv=0.120 kva=1000.0 %r=0.000600
~ wdg=3 conn=w kv=0.120 kva=1000.0 %r=0.000600
new Xfmrcode.cimxfmrcode_xfmr_671_c_2 windings=3 phases=1 xhl=2.040000 xht=2.040000 xlt=0.136000 %imag=0.000 %noloadloss=0.000
~ wdg=1 conn=w kv=2.400 kva=10000.0 %r=0.003000
~ wdg=2 conn=w kv=0.120 kva=1000.0 %r=0.000600
~ wdg=3 conn=w kv=0.120 kva=1000.0 %r=0.000600
new Xfmrcode.cimxfmrcode_xfmr_632_b_1 windings=3 phases=1 xhl=2.040000 xht=2.040000 xlt=0.136000 %imag=0.000 %noloadloss=0.000
~ wdg=1 conn=w kv=2.400 kva=10000.0 %r=0.003000
~ wdg=2 conn=w kv=0.120 kva=1000.0 %r=0.000600
~ wdg=3 conn=w kv=0.120 kva=1000.0 %r=0.000600
new Xfmrcode.cimxfmrcode_xfmr_684_a_2 windings=3 phases=1 xhl=2.040000 xht=2.040000 xlt=0.136000 %imag=0.000 %noloadloss=0.000
~ wdg=1 conn=w kv=2.400 kva=10000.0 %r=0.003000
~ wdg=2 conn=w kv=0.120 kva=1000.0 %r=0.000600
~ wdg=3 conn=w kv=0.120 kva=1000.0 %r=0.000600
new Xfmrcode.cimxfmrcode_xfmr_632_b_2 windings=3 phases=1 xhl=2.040000 xht=2.040000 xlt=0.136000 %imag=0.000 %noloadloss=0.000
~ wdg=1 conn=w kv=2.400 kva=10000.0 %r=0.003000
~ wdg=2 conn=w kv=0.120 kva=1000.0 %r=0.000600
~ wdg=3 conn=w kv=0.120 kva=1000.0 %r=0.000600
new Xfmrcode.cimxfmrcode_xfmr_684_a_1 windings=3 phases=1 xhl=2.040000 xht=2.040000 xlt=0.136000 %imag=0.000 %noloadloss=0.000
~ wdg=1 conn=w kv=2.400 kva=10000.0 %r=0.003000
~ wdg=2 conn=w kv=0.120 kva=1000.0 %r=0.000600
~ wdg=3 conn=w kv=0.120 kva=1000.0 %r=0.000600
new Xfmrcode.cimxfmrcode_xfmr_632_b_3 windings=3 phases=1 xhl=2.040000 xht=2.040000 xlt=0.136000 %imag=0.000 %noloadloss=0.000
~ wdg=1 conn=w kv=2.400 kva=10000.0 %r=0.003000
~ wdg=2 conn=w kv=0.120 kva=1000.0 %r=0.000600
~ wdg=3 conn=w kv=0.120 kva=1000.0 %r=0.000600
new Xfmrcode.cimxfmrcode_xfmr_632_b_4 windings=3 phases=1 xhl=2.040000 xht=2.040000 xlt=0.136000 %imag=0.000 %noloadloss=0.000
~ wdg=1 conn=w kv=2.400 kva=10000.0 %r=0.003000
~ wdg=2 conn=w kv=0.120 kva=1000.0 %r=0.000600
~ wdg=3 conn=w kv=0.120 kva=1000.0 %r=0.000600
new Xfmrcode.cimxfmrcode_xfmr_632_b_5 windings=3 phases=1 xhl=2.040000 xht=2.040000 xlt=0.136000 %imag=0.000 %noloadloss=0.000
~ wdg=1 conn=w kv=2.400 kva=10000.0 %r=0.003000
~ wdg=2 conn=w kv=0.120 kva=1000.0 %r=0.000600
~ wdg=3 conn=w kv=0.120 kva=1000.0 %r=0.000600
new Xfmrcode.cimxfmrcode_xfmr_680_b_2 windings=3 phases=1 xhl=2.040000 xht=2.040000 xlt=0.136000 %imag=0.000 %noloadloss=0.000
~ wdg=1 conn=w kv=2.400 kva=10000.0 %r=0.003000
~ wdg=2 conn=w kv=0.120 kva=1000.0 %r=0.000600
~ wdg=3 conn=w kv=0.120 kva=1000.0 %r=0.000600
new Xfmrcode.cimxfmrcode_xfmr_680_b_3 windings=3 phases=1 xhl=2.040000 xht=2.040000 xlt=0.136000 %imag=0.000 %noloadloss=0.000
~ wdg=1 conn=w kv=2.400 kva=10000.0 %r=0.003000
~ wdg=2 conn=w kv=0.120 kva=1000.0 %r=0.000600
~ wdg=3 conn=w kv=0.120 kva=1000.0 %r=0.000600
new Xfmrcode.cimxfmrcode_xfmr_680_b_4 windings=3 phases=1 xhl=2.040000 xht=2.040000 xlt=0.136000 %imag=0.000 %noloadloss=0.000
~ wdg=1 conn=w kv=2.400 kva=10000.0 %r=0.003000
~ wdg=2 conn=w kv=0.120 kva=1000.0 %r=0.000600
~ wdg=3 conn=w kv=0.120 kva=1000.0 %r=0.000600
new Xfmrcode.cimxfmrcode_xfmr_680_b_5 windings=3 phases=1 xhl=2.040000 xht=2.040000 xlt=0.136000 %imag=0.000 %noloadloss=0.000
~ wdg=1 conn=w kv=2.400 kva=10000.0 %r=0.003000
~ wdg=2 conn=w kv=0.120 kva=1000.0 %r=0.000600
~ wdg=3 conn=w kv=0.120 kva=1000.0 %r=0.000600
new Xfmrcode.regleg windings=2 phases=1 xhl=0.010000 %imag=0.000 %noloadloss=0.000
~ wdg=1 conn=w kv=2.400 kva=1666.0 %r=0.005000
~ wdg=2 conn=w kv=2.400 kva=1666.0 %r=0.005000
new Xfmrcode.cimxfmrcode_xfmr_680_b_1 windings=3 phases=1 xhl=2.040000 xht=2.040000 xlt=0.136000 %imag=0.000 %noloadloss=0.000
~ wdg=1 conn=w kv=2.400 kva=10000.0 %r=0.003000
~ wdg=2 conn=w kv=0.120 kva=1000.0 %r=0.000600
~ wdg=3 conn=w kv=0.120 kva=1000.0 %r=0.000600
new Xfmrcode.cimxfmrcode_xfmr_675_b_4 windings=3 phases=1 xhl=2.040000 xht=2.040000 xlt=0.136000 %imag=0.000 %noloadloss=0.000
~ wdg=1 conn=w kv=2.400 kva=10000.0 %r=0.003000
~ wdg=2 conn=w kv=0.120 kva=1000.0 %r=0.000600
~ wdg=3 conn=w kv=0.120 kva=1000.0 %r=0.000600
new Xfmrcode.cimxfmrcode_xfmr_675_b_5 windings=3 phases=1 xhl=2.040000 xht=2.040000 xlt=0.136000 %imag=0.000 %noloadloss=0.000
~ wdg=1 conn=w kv=2.400 kva=10000.0 %r=0.003000
~ wdg=2 conn=w kv=0.120 kva=1000.0 %r=0.000600
~ wdg=3 conn=w kv=0.120 kva=1000.0 %r=0.000600
new Xfmrcode.cimxfmrcode_xfmr_675_b_2 windings=3 phases=1 xhl=2.040000 xht=2.040000 xlt=0.136000 %imag=0.000 %noloadloss=0.000
~ wdg=1 conn=w kv=2.400 kva=10000.0 %r=0.003000
~ wdg=2 conn=w kv=0.120 kva=1000.0 %r=0.000600
~ wdg=3 conn=w kv=0.120 kva=1000.0 %r=0.000600
new Xfmrcode.cimxfmrcode_xfmr_675_b_3 windings=3 phases=1 xhl=2.040000 xht=2.040000 xlt=0.136000 %imag=0.000 %noloadloss=0.000
~ wdg=1 conn=w kv=2.400 kva=10000.0 %r=0.003000
~ wdg=2 conn=w kv=0.120 kva=1000.0 %r=0.000600
~ wdg=3 conn=w kv=0.120 kva=1000.0 %r=0.000600
new Xfmrcode.cimxfmrcode_xfmr_675_b_1 windings=3 phases=1 xhl=2.040000 xht=2.040000 xlt=0.136000 %imag=0.000 %noloadloss=0.000
~ wdg=1 conn=w kv=2.400 kva=10000.0 %r=0.003000
~ wdg=2 conn=w kv=0.120 kva=1000.0 %r=0.000600
~ wdg=3 conn=w kv=0.120 kva=1000.0 %r=0.000600
new Xfmrcode.cimxfmrcode_xfmr_633_c_5 windings=3 phases=1 xhl=2.040000 xht=2.040000 xlt=0.136000 %imag=0.000 %noloadloss=0.000
~ wdg=1 conn=w kv=2.400 kva=10000.0 %r=0.003000
~ wdg=2 conn=w kv=0.120 kva=1000.0 %r=0.000600
~ wdg=3 conn=w kv=0.120 kva=1000.0 %r=0.000600
new Xfmrcode.cimxfmrcode_xfmr_692_a_1 windings=3 phases=1 xhl=2.040000 xht=2.040000 xlt=0.136000 %imag=0.000 %noloadloss=0.000
~ wdg=1 conn=w kv=2.400 kva=10000.0 %r=0.003000
~ wdg=2 conn=w kv=0.120 kva=1000.0 %r=0.000600
~ wdg=3 conn=w kv=0.120 kva=1000.0 %r=0.000600
new Xfmrcode.subxfmr windings=2 phases=3 xhl=0.008000 %imag=0.000 %noloadloss=0.000
~ wdg=1 conn=d kv=115.000 kva=5000.0 %r=0.000500
~ wdg=2 conn=w kv=4.160 kva=5000.0 %r=0.000500
new Xfmrcode.cimxfmrcode_xfmr_633_c_3 windings=3 phases=1 xhl=2.040000 xht=2.040000 xlt=0.136000 %imag=0.000 %noloadloss=0.000
~ wdg=1 conn=w kv=2.400 kva=10000.0 %r=0.003000
~ wdg=2 conn=w kv=0.120 kva=1000.0 %r=0.000600
~ wdg=3 conn=w kv=0.120 kva=1000.0 %r=0.000600
new Xfmrcode.cimxfmrcode_xfmr_632_a_1 windings=3 phases=1 xhl=2.040000 xht=2.040000 xlt=0.136000 %imag=0.000 %noloadloss=0.000
~ wdg=1 conn=w kv=2.400 kva=10000.0 %r=0.003000
~ wdg=2 conn=w kv=0.120 kva=1000.0 %r=0.000600
~ wdg=3 conn=w kv=0.120 kva=1000.0 %r=0.000600
new Xfmrcode.cimxfmrcode_xfmr_633_c_4 windings=3 phases=1 xhl=2.040000 xht=2.040000 xlt=0.136000 %imag=0.000 %noloadloss=0.000
~ wdg=1 conn=w kv=2.400 kva=10000.0 %r=0.003000
~ wdg=2 conn=w kv=0.120 kva=1000.0 %r=0.000600
~ wdg=3 conn=w kv=0.120 kva=1000.0 %r=0.000600
new Xfmrcode.cimxfmrcode_xfmr_632_a_2 windings=3 phases=1 xhl=2.040000 xht=2.040000 xlt=0.136000 %imag=0.000 %noloadloss=0.000
~ wdg=1 conn=w kv=2.400 kva=10000.0 %r=0.003000
~ wdg=2 conn=w kv=0.120 kva=1000.0 %r=0.000600
~ wdg=3 conn=w kv=0.120 kva=1000.0 %r=0.000600
new Xfmrcode.cimxfmrcode_xfmr_633_c_1 windings=3 phases=1 xhl=2.040000 xht=2.040000 xlt=0.136000 %imag=0.000 %noloadloss=0.000
~ wdg=1 conn=w kv=2.400 kva=10000.0 %r=0.003000
~ wdg=2 conn=w kv=0.120 kva=1000.0 %r=0.000600
~ wdg=3 conn=w kv=0.120 kva=1000.0 %r=0.000600
new Xfmrcode.cimxfmrcode_xfmr_632_a_3 windings=3 phases=1 xhl=2.040000 xht=2.040000 xlt=0.136000 %imag=0.000 %noloadloss=0.000
~ wdg=1 conn=w kv=2.400 kva=10000.0 %r=0.003000