clock {
	timestamp '2021-12-25 00:00:00';
	stoptime '2021-12-25 23:59:00';
};
module tape {
};

module powerflow {
	solver_method FBS;
	default_maximum_voltage_error 1e-9;
	line_limits TRUE;
};


module climate {
};

module residential {
	implicit_enduses NONE;
	ANSI_voltage_check TRUE;
};

#include "./downstream_objects.glm";
#include "./multi_recorders.glm"

class player {
    double value;
}

object player {
	name wd_652_1;
	file "../wd_files/psu_feeder_output_profiles/wd_1.csv";
};
object player {
	name wd_652_2;
	file "../wd_files/psu_feeder_output_profiles/wd_2.csv";
};
object player {
	name wd_652_3;
	file "../wd_files/psu_feeder_output_profiles/wd_3.csv";
};
object player {
	name wd_652_4;
	file "../wd_files/psu_feeder_output_profiles/wd_4.csv";
};
object player {
	name wd_652_5;
	file "../wd_files/psu_feeder_output_profiles/wd_5.csv";
};
object player {
	name wd_652_6;
	file "../wd_files/psu_feeder_output_profiles/wd_6.csv";
};
object player {
	name wd_652_7;
	file "../wd_files/psu_feeder_output_profiles/wd_7.csv";
};
object player {
	name wd_652_8;
	file "../wd_files/psu_feeder_output_profiles/wd_8.csv";
};
object player {
	name wd_652_9;
	file "../wd_files/psu_feeder_output_profiles/wd_9.csv";
};
object player {
	name wd_652_10;
	file "../wd_files/psu_feeder_output_profiles/wd_10.csv";
};
object player {
	name wd_652_11;
	file "../wd_files/psu_feeder_output_profiles/wd_11.csv";
};
object player {
	name wd_652_12;
	file "../wd_files/psu_feeder_output_profiles/wd_12.csv";
};
object player {
	name wd_652_13;
	file "../wd_files/psu_feeder_output_profiles/wd_13.csv";
};
object player {
	name wd_652_14;
	file "../wd_files/psu_feeder_output_profiles/wd_14.csv";
};
object player {
	name wd_652_15;
	file "../wd_files/psu_feeder_output_profiles/wd_15.csv";
};
object player {
	name wd_652_16;
	file "../wd_files/psu_feeder_output_profiles/wd_16.csv";
};
object player {
	name wd_652_17;
	file "../wd_files/psu_feeder_output_profiles/wd_17.csv";
};
object player {
	name wd_652_18;
	file "../wd_files/psu_feeder_output_profiles/wd_18.csv";
};
object player {
	name wd_652_19;
	file "../wd_files/psu_feeder_output_profiles/wd_19.csv";
};
object player {
	name wd_652_20;
	file "../wd_files/psu_feeder_output_profiles/wd_20.csv";
};
object player {
	name wd_652_21;
	file "../wd_files/psu_feeder_output_profiles/wd_21.csv";
};
object player {
	name wd_652_22;
	file "../wd_files/psu_feeder_output_profiles/wd_22.csv";
};
object player {
	name wd_652_23;
	file "../wd_files/psu_feeder_output_profiles/wd_23.csv";
};
object player {
	name wd_652_24;
	file "../wd_files/psu_feeder_output_profiles/wd_24.csv";
};
object player {
	name wd_652_25;
	file "../wd_files/psu_feeder_output_profiles/wd_25.csv";
};
object player {
	name wd_652_26;
	file "../wd_files/psu_feeder_output_profiles/wd_26.csv";
};
object player {
	name wd_652_27;
	file "../wd_files/psu_feeder_output_profiles/wd_27.csv";
};
object player {
	name wd_652_28;
	file "../wd_files/psu_feeder_output_profiles/wd_28.csv";
};
object player {
	name wd_652_29;
	file "../wd_files/psu_feeder_output_profiles/wd_29.csv";
};
object player {
	name wd_652_30;
	file "../wd_files/psu_feeder_output_profiles/wd_30.csv";
};
object player {
	name wd_652_31;
	file "../wd_files/psu_feeder_output_profiles/wd_31.csv";
};
object player {
	name wd_652_32;
	file "../wd_files/psu_feeder_output_profiles/wd_32.csv";
};
object player {
	name wd_652_33;
	file "../wd_files/psu_feeder_output_profiles/wd_33.csv";
};
object player {
	name wd_652_34;
	file "../wd_files/psu_feeder_output_profiles/wd_34.csv";
};
object player {
	name wd_652_35;
	file "../wd_files/psu_feeder_output_profiles/wd_35.csv";
};
object player {
	name wd_652_36;
	file "../wd_files/psu_feeder_output_profiles/wd_36.csv";
};
object player {
	name wd_652_37;
	file "../wd_files/psu_feeder_output_profiles/wd_37.csv";
};
object player {
	name wd_652_38;
	file "../wd_files/psu_feeder_output_profiles/wd_38.csv";
};
object player {
	name wd_652_39;
	file "../wd_files/psu_feeder_output_profiles/wd_39.csv";
};
object player {
	name wd_652_40;
	file "../wd_files/psu_feeder_output_profiles/wd_40.csv";
};
object player {
	name wd_611_41;
	file "../wd_files/psu_feeder_output_profiles/wd_41.csv";
};
object player {
	name wd_611_42;
	file "../wd_files/psu_feeder_output_profiles/wd_42.csv";
};
object player {
	name wd_611_43;
	file "../wd_files/psu_feeder_output_profiles/wd_43.csv";
};
object player {
	name wd_611_44;
	file "../wd_files/psu_feeder_output_profiles/wd_44.csv";
};
object player {
	name wd_611_45;
	file "../wd_files/psu_feeder_output_profiles/wd_45.csv";
};
object player {
	name wd_611_46;
	file "../wd_files/psu_feeder_output_profiles/wd_46.csv";
};
object player {
	name wd_611_47;
	file "../wd_files/psu_feeder_output_profiles/wd_47.csv";
};
object player {
	name wd_611_48;
	file "../wd_files/psu_feeder_output_profiles/wd_48.csv";
};
object player {
	name wd_611_49;
	file "../wd_files/psu_feeder_output_profiles/wd_49.csv";
};
object player {
	name wd_611_50;
	file "../wd_files/psu_feeder_output_profiles/wd_50.csv";
};
object player {
	name wd_611_51;
	file "../wd_files/psu_feeder_output_profiles/wd_51.csv";
};
object player {
	name wd_611_52;
	file "../wd_files/psu_feeder_output_profiles/wd_52.csv";
};
object player {
	name wd_611_53;
	file "../wd_files/psu_feeder_output_profiles/wd_53.csv";
};
object player {
	name wd_611_54;
	file "../wd_files/psu_feeder_output_profiles/wd_54.csv";
};
object player {
	name wd_611_55;
	file "../wd_files/psu_feeder_output_profiles/wd_55.csv";
};
object player {
	name wd_611_56;
	file "../wd_files/psu_feeder_output_profiles/wd_56.csv";
};
object player {
	name wd_611_57;
	file "../wd_files/psu_feeder_output_profiles/wd_57.csv";
};
object player {
	name wd_611_58;
	file "../wd_files/psu_feeder_output_profiles/wd_58.csv";
};
object player {
	name wd_611_59;
	file "../wd_files/psu_feeder_output_profiles/wd_59.csv";
};
object player {
	name wd_611_60;
	file "../wd_files/psu_feeder_output_profiles/wd_60.csv";
};
object player {
	name wd_611_61;
	file "../wd_files/psu_feeder_output_profiles/wd_61.csv";
};
object player {
	name wd_611_62;
	file "../wd_files/psu_feeder_output_profiles/wd_62.csv";
};
object player {
	name wd_611_63;
	file "../wd_files/psu_feeder_output_profiles/wd_63.csv";
};
object player {
	name wd_611_64;
	file "../wd_files/psu_feeder_output_profiles/wd_64.csv";
};
object player {
	name wd_611_65;
	file "../wd_files/psu_feeder_output_profiles/wd_65.csv";
};
object player {
	name wd_611_66;
	file "../wd_files/psu_feeder_output_profiles/wd_66.csv";
};
object player {
	name wd_611_67;
	file "../wd_files/psu_feeder_output_profiles/wd_67.csv";
};
object player {
	name wd_611_68;
	file "../wd_files/psu_feeder_output_profiles/wd_68.csv";
};
object player {
	name wd_611_69;
	file "../wd_files/psu_feeder_output_profiles/wd_69.csv";
};
object player {
	name wd_611_70;
	file "../wd_files/psu_feeder_output_profiles/wd_70.csv";
};
object player {
	name wd_611_71;
	file "../wd_files/psu_feeder_output_profiles/wd_71.csv";
};
object player {
	name wd_611_72;
	file "../wd_files/psu_feeder_output_profiles/wd_72.csv";
};
object player {
	name wd_611_73;
	file "../wd_files/psu_feeder_output_profiles/wd_73.csv";
};
object player {
	name wd_611_74;
	file "../wd_files/psu_feeder_output_profiles/wd_74.csv";
};
object player {
	name wd_611_75;
	file "../wd_files/psu_feeder_output_profiles/wd_75.csv";
};
object player {
	name wd_611_76;
	file "../wd_files/psu_feeder_output_profiles/wd_76.csv";
};
object player {
	name wd_611_77;
	file "../wd_files/psu_feeder_output_profiles/wd_77.csv";
};
object player {
	name wd_611_78;
	file "../wd_files/psu_feeder_output_profiles/wd_78.csv";
};
object player {
	name wd_611_79;
	file "../wd_files/psu_feeder_output_profiles/wd_79.csv";
};
object player {
	name wd_611_80;
	file "../wd_files/psu_feeder_output_profiles/wd_80.csv";
};
object player {
	name wd_684_81;
	file "../wd_files/psu_feeder_output_profiles/wd_81.csv";
};
object player {
	name wd_684_82;
	file "../wd_files/psu_feeder_output_profiles/wd_82.csv";
};
object player {
	name wd_684_83;
	file "../wd_files/psu_feeder_output_profiles/wd_83.csv";
};
object player {
	name wd_684_84;
	file "../wd_files/psu_feeder_output_profiles/wd_84.csv";
};
object player {
	name wd_684_85;
	file "../wd_files/psu_feeder_output_profiles/wd_85.csv";
};
object player {
	name wd_684_86;
	file "../wd_files/psu_feeder_output_profiles/wd_86.csv";
};
object player {
	name wd_684_87;
	file "../wd_files/psu_feeder_output_profiles/wd_87.csv";
};
object player {
	name wd_684_88;
	file "../wd_files/psu_feeder_output_profiles/wd_88.csv";
};
object player {
	name wd_684_89;
	file "../wd_files/psu_feeder_output_profiles/wd_89.csv";
};
object player {
	name wd_684_90;
	file "../wd_files/psu_feeder_output_profiles/wd_90.csv";
};
object player {
	name wd_684_91;
	file "../wd_files/psu_feeder_output_profiles/wd_91.csv";
};
object player {
	name wd_684_92;
	file "../wd_files/psu_feeder_output_profiles/wd_92.csv";
};
object player {
	name wd_684_93;
	file "../wd_files/psu_feeder_output_profiles/wd_93.csv";
};
object player {
	name wd_684_94;
	file "../wd_files/psu_feeder_output_profiles/wd_94.csv";
};
object player {
	name wd_684_95;
	file "../wd_files/psu_feeder_output_profiles/wd_95.csv";
};
object player {
	name wd_684_96;
	file "../wd_files/psu_feeder_output_profiles/wd_96.csv";
};
object player {
	name wd_684_97;
	file "../wd_files/psu_feeder_output_profiles/wd_97.csv";
};
object player {
	name wd_684_98;
	file "../wd_files/psu_feeder_output_profiles/wd_98.csv";
};
object player {
	name wd_684_99;
	file "../wd_files/psu_feeder_output_profiles/wd_99.csv";
};
object player {
	name wd_684_100;
	file "../wd_files/psu_feeder_output_profiles/wd_100.csv";
};
object player {
	name wd_684_101;
	file "../wd_files/psu_feeder_output_profiles/wd_101.csv";
};
object player {
	name wd_684_102;
	file "../wd_files/psu_feeder_output_profiles/wd_102.csv";
};
object player {
	name wd_684_103;
	file "../wd_files/psu_feeder_output_profiles/wd_103.csv";
};
object player {
	name wd_684_104;
	file "../wd_files/psu_feeder_output_profiles/wd_104.csv";
};
object player {
	name wd_684_105;
	file "../wd_files/psu_feeder_output_profiles/wd_105.csv";
};
object player {
	name wd_684_106;
	file "../wd_files/psu_feeder_output_profiles/wd_106.csv";
};
object player {
	name wd_684_107;
	file "../wd_files/psu_feeder_output_profiles/wd_107.csv";
};
object player {
	name wd_684_108;
	file "../wd_files/psu_feeder_output_profiles/wd_108.csv";
};
object player {
	name wd_684_109;
	file "../wd_files/psu_feeder_output_profiles/wd_109.csv";
};
object player {
	name wd_684_110;
	file "../wd_files/psu_feeder_output_profiles/wd_110.csv";
};
object player {
	name wd_684_111;
	file "../wd_files/psu_feeder_output_profiles/wd_111.csv";
};
object player {
	name wd_684_112;
	file "../wd_files/psu_feeder_output_profiles/wd_112.csv";
};
object player {
	name wd_684_113;
	file "../wd_files/psu_feeder_output_profiles/wd_113.csv";
};
object player {
	name wd_684_114;
	file "../wd_files/psu_feeder_output_profiles/wd_114.csv";
};
object player {
	name wd_684_115;
	file "../wd_files/psu_feeder_output_profiles/wd_115.csv";
};
object player {
	name wd_684_116;
	file "../wd_files/psu_feeder_output_profiles/wd_116.csv";
};
object player {
	name wd_684_117;
	file "../wd_files/psu_feeder_output_profiles/wd_117.csv";
};
object player {
	name wd_684_118;
	file "../wd_files/psu_feeder_output_profiles/wd_118.csv";
};
object player {
	name wd_684_119;
	file "../wd_files/psu_feeder_output_profiles/wd_119.csv";
};
object player {
	name wd_684_120;
	file "../wd_files/psu_feeder_output_profiles/wd_120.csv";
};
object player {
	name wd_684_121;
	file "../wd_files/psu_feeder_output_profiles/wd_121.csv";
};
object player {
	name wd_684_122;
	file "../wd_files/psu_feeder_output_profiles/wd_122.csv";
};
object player {
	name wd_684_123;
	file "../wd_files/psu_feeder_output_profiles/wd_123.csv";
};
object player {
	name wd_684_124;
	file "../wd_files/psu_feeder_output_profiles/wd_124.csv";
};
object player {
	name wd_684_125;
	file "../wd_files/psu_feeder_output_profiles/wd_125.csv";
};
object player {
	name wd_684_126;
	file "../wd_files/psu_feeder_output_profiles/wd_126.csv";
};
object player {
	name wd_684_127;
	file "../wd_files/psu_feeder_output_profiles/wd_127.csv";
};
object player {
	name wd_684_128;
	file "../wd_files/psu_feeder_output_profiles/wd_128.csv";
};
object player {
	name wd_684_129;
	file "../wd_files/psu_feeder_output_profiles/wd_129.csv";
};
object player {
	name wd_684_130;
	file "../wd_files/psu_feeder_output_profiles/wd_130.csv";
};
object player {
	name wd_684_131;
	file "../wd_files/psu_feeder_output_profiles/wd_131.csv";
};
object player {
	name wd_684_132;
	file "../wd_files/psu_feeder_output_profiles/wd_132.csv";
};
object player {
	name wd_684_133;
	file "../wd_files/psu_feeder_output_profiles/wd_133.csv";
};
object player {
	name wd_684_134;
	file "../wd_files/psu_feeder_output_profiles/wd_134.csv";
};
object player {
	name wd_684_135;
	file "../wd_files/psu_feeder_output_profiles/wd_135.csv";
};
object player {
	name wd_684_136;
	file "../wd_files/psu_feeder_output_profiles/wd_136.csv";
};
object player {
	name wd_684_137;
	file "../wd_files/psu_feeder_output_profiles/wd_137.csv";
};
object player {
	name wd_684_138;
	file "../wd_files/psu_feeder_output_profiles/wd_138.csv";
};
object player {
	name wd_684_139;
	file "../wd_files/psu_feeder_output_profiles/wd_139.csv";
};
object player {
	name wd_684_140;
	file "../wd_files/psu_feeder_output_profiles/wd_140.csv";
};
object player {
	name wd_684_141;
	file "../wd_files/psu_feeder_output_profiles/wd_141.csv";
};
object player {
	name wd_684_142;
	file "../wd_files/psu_feeder_output_profiles/wd_142.csv";
};
object player {
	name wd_684_143;
	file "../wd_files/psu_feeder_output_profiles/wd_143.csv";
};
object player {
	name wd_684_144;
	file "../wd_files/psu_feeder_output_profiles/wd_144.csv";
};
object player {
	name wd_684_145;
	file "../wd_files/psu_feeder_output_profiles/wd_145.csv";
};
object player {
	name wd_684_146;
	file "../wd_files/psu_feeder_output_profiles/wd_146.csv";
};
object player {
	name wd_684_147;
	file "../wd_files/psu_feeder_output_profiles/wd_147.csv";
};
object player {
	name wd_684_148;
	file "../wd_files/psu_feeder_output_profiles/wd_148.csv";
};
object player {
	name wd_684_149;
	file "../wd_files/psu_feeder_output_profiles/wd_149.csv";
};
object player {
	name wd_684_150;
	file "../wd_files/psu_feeder_output_profiles/wd_150.csv";
};
object player {
	name wd_684_151;
	file "../wd_files/psu_feeder_output_profiles/wd_151.csv";
};
object player {
	name wd_684_152;
	file "../wd_files/psu_feeder_output_profiles/wd_152.csv";
};
object player {
	name wd_684_153;
	file "../wd_files/psu_feeder_output_profiles/wd_153.csv";
};
object player {
	name wd_684_154;
	file "../wd_files/psu_feeder_output_profiles/wd_154.csv";
};
object player {
	name wd_684_155;
	file "../wd_files/psu_feeder_output_profiles/wd_155.csv";
};
object player {
	name wd_684_156;
	file "../wd_files/psu_feeder_output_profiles/wd_156.csv";
};
object player {
	name wd_684_157;
	file "../wd_files/psu_feeder_output_profiles/wd_157.csv";
};
object player {
	name wd_684_158;
	file "../wd_files/psu_feeder_output_profiles/wd_158.csv";
};
object player {
	name wd_684_159;
	file "../wd_files/psu_feeder_output_profiles/wd_159.csv";
};
object player {
	name wd_684_160;
	file "../wd_files/psu_feeder_output_profiles/wd_160.csv";
};
object player {
	name wd_645_161;
	file "../wd_files/psu_feeder_output_profiles/wd_161.csv";
};
object player {
	name wd_645_162;
	file "../wd_files/psu_feeder_output_profiles/wd_162.csv";
};
object player {
	name wd_645_163;
	file "../wd_files/psu_feeder_output_profiles/wd_163.csv";
};
object player {
	name wd_645_164;
	file "../wd_files/psu_feeder_output_profiles/wd_164.csv";
};
object player {
	name wd_645_165;
	file "../wd_files/psu_feeder_output_profiles/wd_165.csv";
};
object player {
	name wd_645_166;
	file "../wd_files/psu_feeder_output_profiles/wd_166.csv";
};
object player {
	name wd_645_167;
	file "../wd_files/psu_feeder_output_profiles/wd_167.csv";
};
object player {
	name wd_645_168;
	file "../wd_files/psu_feeder_output_profiles/wd_168.csv";
};
object player {
	name wd_645_169;
	file "../wd_files/psu_feeder_output_profiles/wd_169.csv";
};
object player {
	name wd_645_170;
	file "../wd_files/psu_feeder_output_profiles/wd_170.csv";
};
object player {
	name wd_645_171;
	file "../wd_files/psu_feeder_output_profiles/wd_171.csv";
};
object player {
	name wd_645_172;
	file "../wd_files/psu_feeder_output_profiles/wd_172.csv";
};
object player {
	name wd_645_173;
	file "../wd_files/psu_feeder_output_profiles/wd_173.csv";
};
object player {
	name wd_645_174;
	file "../wd_files/psu_feeder_output_profiles/wd_174.csv";
};
object player {
	name wd_645_175;
	file "../wd_files/psu_feeder_output_profiles/wd_175.csv";
};
object player {
	name wd_645_176;
	file "../wd_files/psu_feeder_output_profiles/wd_176.csv";
};
object player {
	name wd_645_177;
	file "../wd_files/psu_feeder_output_profiles/wd_177.csv";
};
object player {
	name wd_645_178;
	file "../wd_files/psu_feeder_output_profiles/wd_178.csv";
};
object player {
	name wd_645_179;
	file "../wd_files/psu_feeder_output_profiles/wd_179.csv";
};
object player {
	name wd_645_180;
	file "../wd_files/psu_feeder_output_profiles/wd_180.csv";
};
object player {
	name wd_645_181;
	file "../wd_files/psu_feeder_output_profiles/wd_181.csv";
};
object player {
	name wd_645_182;
	file "../wd_files/psu_feeder_output_profiles/wd_182.csv";
};
object player {
	name wd_645_183;
	file "../wd_files/psu_feeder_output_profiles/wd_183.csv";
};
object player {
	name wd_645_184;
	file "../wd_files/psu_feeder_output_profiles/wd_184.csv";
};
object player {
	name wd_645_185;
	file "../wd_files/psu_feeder_output_profiles/wd_185.csv";
};
object player {
	name wd_645_186;
	file "../wd_files/psu_feeder_output_profiles/wd_186.csv";
};
object player {
	name wd_645_187;
	file "../wd_files/psu_feeder_output_profiles/wd_187.csv";
};
object player {
	name wd_645_188;
	file "../wd_files/psu_feeder_output_profiles/wd_188.csv";
};
object player {
	name wd_645_189;
	file "../wd_files/psu_feeder_output_profiles/wd_189.csv";
};
object player {
	name wd_645_190;
	file "../wd_files/psu_feeder_output_profiles/wd_190.csv";
};
object player {
	name wd_645_191;
	file "../wd_files/psu_feeder_output_profiles/wd_191.csv";
};
object player {
	name wd_645_192;
	file "../wd_files/psu_feeder_output_profiles/wd_192.csv";
};
object player {
	name wd_645_193;
	file "../wd_files/psu_feeder_output_profiles/wd_193.csv";
};
object player {
	name wd_645_194;
	file "../wd_files/psu_feeder_output_profiles/wd_194.csv";
};
object player {
	name wd_645_195;
	file "../wd_files/psu_feeder_output_profiles/wd_195.csv";
};
object player {
	name wd_645_196;
	file "../wd_files/psu_feeder_output_profiles/wd_196.csv";
};
object player {
	name wd_645_197;
	file "../wd_files/psu_feeder_output_profiles/wd_197.csv";
};
object player {
	name wd_645_198;
	file "../wd_files/psu_feeder_output_profiles/wd_198.csv";
};
object player {
	name wd_645_199;
	file "../wd_files/psu_feeder_output_profiles/wd_199.csv";
};
object player {
	name wd_645_200;
	file "../wd_files/psu_feeder_output_profiles/wd_200.csv";
};
object player {
	name wd_645_201;
	file "../wd_files/psu_feeder_output_profiles/wd_201.csv";
};
object player {
	name wd_645_202;
	file "../wd_files/psu_feeder_output_profiles/wd_202.csv";
};
object player {
	name wd_645_203;
	file "../wd_files/psu_feeder_output_profiles/wd_203.csv";
};
object player {
	name wd_645_204;
	file "../wd_files/psu_feeder_output_profiles/wd_204.csv";
};
object player {
	name wd_645_205;
	file "../wd_files/psu_feeder_output_profiles/wd_205.csv";
};
object player {
	name wd_645_206;
	file "../wd_files/psu_feeder_output_profiles/wd_206.csv";
};
object player {
	name wd_645_207;
	file "../wd_files/psu_feeder_output_profiles/wd_207.csv";
};
object player {
	name wd_645_208;
	file "../wd_files/psu_feeder_output_profiles/wd_208.csv";
};
object player {
	name wd_645_209;
	file "../wd_files/psu_feeder_output_profiles/wd_209.csv";
};
object player {
	name wd_645_210;
	file "../wd_files/psu_feeder_output_profiles/wd_210.csv";
};
object player {
	name wd_645_211;
	file "../wd_files/psu_feeder_output_profiles/wd_211.csv";
};
object player {
	name wd_645_212;
	file "../wd_files/psu_feeder_output_profiles/wd_212.csv";
};
object player {
	name wd_645_213;
	file "../wd_files/psu_feeder_output_profiles/wd_213.csv";
};
object player {
	name wd_645_214;
	file "../wd_files/psu_feeder_output_profiles/wd_214.csv";
};
object player {
	name wd_645_215;
	file "../wd_files/psu_feeder_output_profiles/wd_215.csv";
};
object player {
	name wd_645_216;
	file "../wd_files/psu_feeder_output_profiles/wd_216.csv";
};
object player {
	name wd_645_217;
	file "../wd_files/psu_feeder_output_profiles/wd_217.csv";
};
object player {
	name wd_645_218;
	file "../wd_files/psu_feeder_output_profiles/wd_218.csv";
};
object player {
	name wd_645_219;
	file "../wd_files/psu_feeder_output_profiles/wd_219.csv";
};
object player {
	name wd_645_220;
	file "../wd_files/psu_feeder_output_profiles/wd_220.csv";
};
object player {
	name wd_645_221;
	file "../wd_files/psu_feeder_output_profiles/wd_221.csv";
};
object player {
	name wd_645_222;
	file "../wd_files/psu_feeder_output_profiles/wd_222.csv";
};
object player {
	name wd_645_223;
	file "../wd_files/psu_feeder_output_profiles/wd_223.csv";
};
object player {
	name wd_645_224;
	file "../wd_files/psu_feeder_output_profiles/wd_224.csv";
};
object player {
	name wd_645_225;
	file "../wd_files/psu_feeder_output_profiles/wd_225.csv";
};
object player {
	name wd_645_226;
	file "../wd_files/psu_feeder_output_profiles/wd_226.csv";
};
object player {
	name wd_645_227;
	file "../wd_files/psu_feeder_output_profiles/wd_227.csv";
};
object player {
	name wd_645_228;
	file "../wd_files/psu_feeder_output_profiles/wd_228.csv";
};
object player {
	name wd_645_229;
	file "../wd_files/psu_feeder_output_profiles/wd_229.csv";
};
object player {
	name wd_645_230;
	file "../wd_files/psu_feeder_output_profiles/wd_230.csv";
};
object player {
	name wd_645_231;
	file "../wd_files/psu_feeder_output_profiles/wd_231.csv";
};
object player {
	name wd_645_232;
	file "../wd_files/psu_feeder_output_profiles/wd_232.csv";
};
object player {
	name wd_645_233;
	file "../wd_files/psu_feeder_output_profiles/wd_233.csv";
};
object player {
	name wd_645_234;
	file "../wd_files/psu_feeder_output_profiles/wd_234.csv";
};
object player {
	name wd_645_235;
	file "../wd_files/psu_feeder_output_profiles/wd_235.csv";
};
object player {
	name wd_645_236;
	file "../wd_files/psu_feeder_output_profiles/wd_236.csv";
};
object player {
	name wd_645_237;
	file "../wd_files/psu_feeder_output_profiles/wd_237.csv";
};
object player {
	name wd_645_238;
	file "../wd_files/psu_feeder_output_profiles/wd_238.csv";
};
object player {
	name wd_645_239;
	file "../wd_files/psu_feeder_output_profiles/wd_239.csv";
};
object player {
	name wd_645_240;
	file "../wd_files/psu_feeder_output_profiles/wd_240.csv";
};
object player {
	name wd_633_241;
	file "../wd_files/psu_feeder_output_profiles/wd_241.csv";
};
object player {
	name wd_633_242;
	file "../wd_files/psu_feeder_output_profiles/wd_242.csv";
};
object player {
	name wd_633_243;
	file "../wd_files/psu_feeder_output_profiles/wd_243.csv";
};
object player {
	name wd_633_244;
	file "../wd_files/psu_feeder_output_profiles/wd_244.csv";
};
object player {
	name wd_633_245;
	file "../wd_files/psu_feeder_output_profiles/wd_245.csv";
};
object player {
	name wd_633_246;
	file "../wd_files/psu_feeder_output_profiles/wd_246.csv";
};
object player {
	name wd_633_247;
	file "../wd_files/psu_feeder_output_profiles/wd_247.csv";
};
object player {
	name wd_633_248;
	file "../wd_files/psu_feeder_output_profiles/wd_248.csv";
};
object player {
	name wd_633_249;
	file "../wd_files/psu_feeder_output_profiles/wd_249.csv";
};
object player {
	name wd_633_250;
	file "../wd_files/psu_feeder_output_profiles/wd_250.csv";
};
object player {
	name wd_633_251;
	file "../wd_files/psu_feeder_output_profiles/wd_251.csv";
};
object player {
	name wd_633_252;
	file "../wd_files/psu_feeder_output_profiles/wd_252.csv";
};
object player {
	name wd_633_253;
	file "../wd_files/psu_feeder_output_profiles/wd_253.csv";
};
object player {
	name wd_633_254;
	file "../wd_files/psu_feeder_output_profiles/wd_254.csv";
};
object player {
	name wd_633_255;
	file "../wd_files/psu_feeder_output_profiles/wd_255.csv";
};
object player {
	name wd_633_256;
	file "../wd_files/psu_feeder_output_profiles/wd_256.csv";
};
object player {
	name wd_633_257;
	file "../wd_files/psu_feeder_output_profiles/wd_257.csv";
};
object player {
	name wd_633_258;
	file "../wd_files/psu_feeder_output_profiles/wd_258.csv";
};
object player {
	name wd_633_259;
	file "../wd_files/psu_feeder_output_profiles/wd_259.csv";
};
object player {
	name wd_633_260;
	file "../wd_files/psu_feeder_output_profiles/wd_260.csv";
};
object player {
	name wd_633_261;
	file "../wd_files/psu_feeder_output_profiles/wd_261.csv";
};
object player {
	name wd_633_262;
	file "../wd_files/psu_feeder_output_profiles/wd_262.csv";
};
object player {
	name wd_633_263;
	file "../wd_files/psu_feeder_output_profiles/wd_263.csv";
};
object player {
	name wd_633_264;
	file "../wd_files/psu_feeder_output_profiles/wd_264.csv";
};
object player {
	name wd_633_265;
	file "../wd_files/psu_feeder_output_profiles/wd_265.csv";
};
object player {
	name wd_633_266;
	file "../wd_files/psu_feeder_output_profiles/wd_266.csv";
};
object player {
	name wd_633_267;
	file "../wd_files/psu_feeder_output_profiles/wd_267.csv";
};
object player {
	name wd_633_268;
	file "../wd_files/psu_feeder_output_profiles/wd_268.csv";
};
object player {
	name wd_633_269;
	file "../wd_files/psu_feeder_output_profiles/wd_269.csv";
};
object player {
	name wd_633_270;
	file "../wd_files/psu_feeder_output_profiles/wd_270.csv";
};
object player {
	name wd_633_271;
	file "../wd_files/psu_feeder_output_profiles/wd_271.csv";
};
object player {
	name wd_633_272;
	file "../wd_files/psu_feeder_output_profiles/wd_272.csv";
};
object player {
	name wd_633_273;
	file "../wd_files/psu_feeder_output_profiles/wd_273.csv";
};
object player {
	name wd_633_274;
	file "../wd_files/psu_feeder_output_profiles/wd_274.csv";
};
object player {
	name wd_633_275;
	file "../wd_files/psu_feeder_output_profiles/wd_275.csv";
};
object player {
	name wd_633_276;
	file "../wd_files/psu_feeder_output_profiles/wd_276.csv";
};
object player {
	name wd_633_277;
	file "../wd_files/psu_feeder_output_profiles/wd_277.csv";
};
object player {
	name wd_633_278;
	file "../wd_files/psu_feeder_output_profiles/wd_278.csv";
};
object player {
	name wd_633_279;
	file "../wd_files/psu_feeder_output_profiles/wd_279.csv";
};
object player {
	name wd_633_280;
	file "../wd_files/psu_feeder_output_profiles/wd_280.csv";
};
object player {
	name wd_633_281;
	file "../wd_files/psu_feeder_output_profiles/wd_281.csv";
};
object player {
	name wd_633_282;
	file "../wd_files/psu_feeder_output_profiles/wd_282.csv";
};
object player {
	name wd_633_283;
	file "../wd_files/psu_feeder_output_profiles/wd_283.csv";
};
object player {
	name wd_633_284;
	file "../wd_files/psu_feeder_output_profiles/wd_284.csv";
};
object player {
	name wd_633_285;
	file "../wd_files/psu_feeder_output_profiles/wd_285.csv";
};
object player {
	name wd_633_286;
	file "../wd_files/psu_feeder_output_profiles/wd_286.csv";
};
object player {
	name wd_633_287;
	file "../wd_files/psu_feeder_output_profiles/wd_287.csv";
};
object player {
	name wd_633_288;
	file "../wd_files/psu_feeder_output_profiles/wd_288.csv";
};
object player {
	name wd_633_289;
	file "../wd_files/psu_feeder_output_profiles/wd_289.csv";
};
object player {
	name wd_633_290;
	file "../wd_files/psu_feeder_output_profiles/wd_290.csv";
};
object player {
	name wd_633_291;
	file "../wd_files/psu_feeder_output_profiles/wd_291.csv";
};
object player {
	name wd_633_292;
	file "../wd_files/psu_feeder_output_profiles/wd_292.csv";
};
object player {
	name wd_633_293;
	file "../wd_files/psu_feeder_output_profiles/wd_293.csv";
};
object player {
	name wd_633_294;
	file "../wd_files/psu_feeder_output_profiles/wd_294.csv";
};
object player {
	name wd_633_295;
	file "../wd_files/psu_feeder_output_profiles/wd_295.csv";
};
object player {
	name wd_633_296;
	file "../wd_files/psu_feeder_output_profiles/wd_296.csv";
};
object player {
	name wd_633_297;
	file "../wd_files/psu_feeder_output_profiles/wd_297.csv";
};
object player {
	name wd_633_298;
	file "../wd_files/psu_feeder_output_profiles/wd_298.csv";
};
object player {
	name wd_633_299;
	file "../wd_files/psu_feeder_output_profiles/wd_299.csv";
};
object player {
	name wd_633_300;
	file "../wd_files/psu_feeder_output_profiles/wd_300.csv";
};
object player {
	name wd_633_301;
	file "../wd_files/psu_feeder_output_profiles/wd_301.csv";
};
object player {
	name wd_633_302;
	file "../wd_files/psu_feeder_output_profiles/wd_302.csv";
};
object player {
	name wd_633_303;
	file "../wd_files/psu_feeder_output_profiles/wd_303.csv";
};
object player {
	name wd_633_304;
	file "../wd_files/psu_feeder_output_profiles/wd_304.csv";
};
object player {
	name wd_633_305;
	file "../wd_files/psu_feeder_output_profiles/wd_305.csv";
};
object player {
	name wd_633_306;
	file "../wd_files/psu_feeder_output_profiles/wd_306.csv";
};
object player {
	name wd_633_307;
	file "../wd_files/psu_feeder_output_profiles/wd_307.csv";
};
object player {
	name wd_633_308;
	file "../wd_files/psu_feeder_output_profiles/wd_308.csv";
};
object player {
	name wd_633_309;
	file "../wd_files/psu_feeder_output_profiles/wd_309.csv";
};
object player {
	name wd_633_310;
	file "../wd_files/psu_feeder_output_profiles/wd_310.csv";
};
object player {
	name wd_633_311;