clock {
     timezone "PST+8PDT";
     starttime '2023-05-19 17:00:00';
     stoptime '2023-05-19 17:05:00';
}
#set profiler=1
module generators;
module tape;
module powerflow {
     line_capacitance TRUE;
     solver_method NR;
}
#define VSOURCE=66395.28095680696
#include "./model_base.glm"
#define tlx_675_c_h_33=242.67011874283511
#define tlx_680_c_h_33=242.5071005385962
#define tlx_675_c_h_36=242.67011874283511
#define tlx_692_c_h_24=242.5081603424121
#define tlx_611_c_h_27=242.68309735611749
#define tlx_611_c_h_24=242.68309735611749
#define tlx_680_c_h_6=242.5071005385962
#define tlx_680_c_h_4=242.5071005385962
#define tlx_611_c_h_20=242.68309735611749
#define tlx_684_c_h_7=242.584795769412
#define tlx_680_c_h_32=242.5071005385962
#define tlx_671_c_h_21=242.5070985304125
#define tlx_675_c_h_18=242.67011874283511
#define tlx_684_c_h_33=242.584795769412
#define tlx_675_c_h_12=242.67011874283511
#define tlx_675_c_h_40=242.67011874283511
#define tlx_611_c_h_36=242.68309735611749
#define tlx_692_c_h_11=242.5081603424121
#define tlx_680_c_h_10=242.5071005385962
#define tlx_675_c_h_4=242.67011874283511
#define tlx_611_c_h_34=242.68309735611749
#define tlx_684_c_h_9=242.584795769412
#define tlx_692_c_h_9=242.5081603424121
#define tlx_692_c_h_25=242.5081603424121
#define tlx_671_c_h_17=242.5070985304125
#define tlx_680_c_h_29=242.5071005385962
#define tlx_611_c_h_19=242.68309735611749
#define tlx_684_c_h_1=242.584795769412
#define tlx_684_c_h_17=242.584795769412
#define tlx_684_c_h_19=242.584795769412
#define tlx_671_c_h_15=242.5070985304125
#define tlx_675_c_h_34=242.67011874283511
#define tlx_671_c_h_29=242.5070985304125
#define tlx_680_c_h_37=242.5071005385962
#define tlx_671_c_h_24=242.5070985304125
#define tlx_611_c_h_16=242.68309735611749
#define tlx_684_c_h_22=242.584795769412
#define tlx_675_c_h_38=242.67011874283511
#define tlx_611_c_h_33=242.68309735611749
#define tlx_675_c_h_29=242.67011874283511
#define tlx_675_c_h_6=242.67011874283511
#define tlx_684_c_h_25=242.584795769412
#define tlx_680_c_h_7=242.5071005385962
#define tlx_692_c_h_39=242.5081603424121
#define tlx_692_c_h_4=242.5081603424121
#define tlx_684_c_h_24=242.584795769412
#define tlx_671_c_h_40=242.5070985304125
#define tlx_692_c_h_15=242.5081603424121
#define tlx_680_c_h_39=242.5071005385962
#define tlx_671_c_h_8=242.5070985304125
#define tlx_675_c_h_7=242.67011874283511
#define tlx_671_c_h_19=242.5070985304125
#define tlx_684_c_h_4=242.584795769412
#define tlx_675_c_h_28=242.67011874283511
#define tlx_611_c_h_28=242.68309735611749
#define tlx_671_c_h_10=242.5070985304125
#define tlx_680_c_h_35=242.5071005385962
#define tlx_611_c_h_37=242.68309735611749
#define tlx_680_c_h_8=242.5071005385962
#define tlx_692_c_h_8=242.5081603424121
#define tlx_675_c_h_37=242.67011874283511
#define tlx_675_c_h_20=242.67011874283511
#define tlx_611_c_h_26=242.68309735611749
#define tlx_671_c_h_33=242.5070985304125
#define tlx_611_c_h_12=242.68309735611749
#define tlx_671_c_h_37=242.5070985304125
#define tlx_692_c_h_1=242.5081603424121
#define tlx_692_c_h_21=242.5081603424121
#define tlx_671_c_h_4=242.5070985304125
#define tlx_611_c_h_11=242.68309735611749
#define tlx_692_c_h_3=242.5081603424121
#define tlx_684_c_h_36=242.584795769412
#define tlx_684_c_h_14=242.584795769412
#define tlx_680_c_h_27=242.5071005385962
#define tlx_611_c_h_6=242.68309735611749
#define tlx_675_c_h_14=242.67011874283511
#define tlx_611_c_h_17=242.68309735611749
#define tlx_680_c_h_38=242.5071005385962
#define tlx_611_c_h_8=242.68309735611749
#define tlx_692_c_h_19=242.5081603424121
#define tlx_680_c_h_11=242.5071005385962
#define tlx_675_c_h_32=242.67011874283511
#define tlx_692_c_h_17=242.5081603424121
#define tlx_680_c_h_5=242.5071005385962
#define tlx_684_c_h_35=242.584795769412
#define tlx_692_c_h_36=242.5081603424121
#define tlx_671_c_h_20=242.5070985304125
#define tlx_671_c_h_30=242.5070985304125
#define tlx_684_c_h_32=242.584795769412
#define tlx_611_c_h_1=242.68309735611749
#define tlx_675_c_h_27=242.67011874283511
#define tlx_611_c_h_30=242.68309735611749
#define tlx_680_c_h_20=242.5071005385962
#define tlx_611_c_h_21=242.68309735611749
#define tlx_675_c_h_23=242.67011874283511
#define tlx_675_c_h_30=242.67011874283511
#define tlx_675_c_h_8=242.67011874283511
#define tlx_692_c_h_10=242.5081603424121
#define tlx_611_c_h_10=242.68309735611749
#define tlx_611_c_h_32=242.68309735611749
#define tlx_671_c_h_22=242.5070985304125
#define tlx_692_c_h_2=242.5081603424121
#define tlx_675_c_h_25=242.67011874283511
#define tlx_692_c_h_7=242.5081603424121
#define tlx_675_c_h_39=242.67011874283511
#define tlx_692_c_h_12=242.5081603424121
#define tlx_671_c_h_25=242.5070985304125
#define tlx_692_c_h_33=242.5081603424121
#define tlx_680_c_h_3=242.5071005385962
#define tlx_684_c_h_15=242.584795769412
#define tlx_680_c_h_13=242.5071005385962
#define tlx_680_c_h_17=242.5071005385962
#define tlx_680_c_h_40=242.5071005385962
#define tlx_692_c_h_34=242.5081603424121
#define tlx_611_c_h_5=242.68309735611749
#define tlx_680_c_h_9=242.5071005385962
#define tlx_692_c_h_22=242.5081603424121
#define tlx_611_c_h_18=242.68309735611749
#define tlx_692_c_h_13=242.5081603424121
#define tlx_675_c_h_1=242.67011874283511
#define tlx_671_c_h_13=242.5070985304125
#define tlx_611_c_h_7=242.68309735611749
#define tlx_671_c_h_2=242.5070985304125
#define tlx_671_c_h_7=242.5070985304125
#define tlx_675_c_h_16=242.67011874283511
#define tlx_680_c_h_16=242.5071005385962
#define tlx_692_c_h_5=242.5081603424121
#define tlx_692_c_h_37=242.5081603424121
#define tlx_680_c_h_15=242.5071005385962
#define tlx_684_c_h_16=242.584795769412
#define tlx_680_c_h_18=242.5071005385962
#define tlx_675_c_h_5=242.67011874283511
#define tlx_684_c_h_8=242.584795769412
#define tlx_692_c_h_18=242.5081603424121
#define tlx_671_c_h_38=242.5070985304125
#define tlx_675_c_h_24=242.67011874283511
#define tlx_680_c_h_36=242.5071005385962
#define tlx_675_c_h_21=242.67011874283511
#define tlx_692_c_h_30=242.5081603424121
#define tlx_692_c_h_28=242.5081603424121
#define tlx_684_c_h_37=242.584795769412
#define tlx_684_c_h_21=242.584795769412
#define tlx_684_c_h_38=242.584795769412
#define tlx_671_c_h_31=242.5070985304125
#define tlx_680_c_h_28=242.5071005385962
#define tlx_680_c_h_1=242.5071005385962
#define tlx_684_c_h_10=242.584795769412
#define tlx_684_c_h_34=242.584795769412
#define tlx_675_c_h_3=242.67011874283511
#define tlx_671_c_h_26=242.5070985304125
#define tlx_675_c_h_9=242.67011874283511
#define tlx_611_c_h_25=242.68309735611749
#define tlx_611_c_h_35=242.68309735611749
#define tlx_611_c_h_4=242.68309735611749
#define tlx_684_c_h_28=242.584795769412
#define tlx_675_c_h_15=242.67011874283511
#define tlx_675_c_h_10=242.67011874283511
#define tlx_611_c_h_14=242.68309735611749
#define tlx_692_c_h_40=242.5081603424121
#define tlx_675_c_h_2=242.67011874283511
#define tlx_684_c_h_30=242.584795769412
#define tlx_684_c_h_20=242.584795769412
#define tlx_611_c_h_13=242.68309735611749
#define tlx_692_c_h_38=242.5081603424121
#define tlx_680_c_h_25=242.5071005385962
#define tlx_680_c_h_14=242.5071005385962
#define tlx_671_c_h_27=242.5070985304125
#define tlx_692_c_h_20=242.5081603424121
#define tlx_611_c_h_38=242.68309735611749
#define tlx_692_c_h_32=242.5081603424121
#define tlx_611_c_h_29=242.68309735611749
#define tlx_611_c_h_15=242.68309735611749
#define tlx_680_c_h_30=242.5071005385962
#define tlx_671_c_h_18=242.5070985304125
#define tlx_684_c_h_26=242.584795769412
#define tlx_675_c_h_13=242.67011874283511
#define tlx_692_c_h_29=242.5081603424121
#define tlx_692_c_h_14=242.5081603424121
#define tlx_675_c_h_35=242.67011874283511
#define tlx_684_c_h_27=242.584795769412
#define tlx_680_c_h_26=242.5071005385962
#define tlx_671_c_h_34=242.5070985304125
#define tlx_675_c_h_11=242.67011874283511
#define tlx_675_c_h_31=242.67011874283511
#define tlx_684_c_h_11=242.584795769412
#define tlx_684_c_h_6=242.584795769412
#define tlx_671_c_h_12=242.5070985304125
#define tlx_671_c_h_6=242.5070985304125
#define tlx_671_c_h_23=242.5070985304125
#define tlx_671_c_h_9=242.5070985304125
#define tlx_680_c_h_24=242.5071005385962
#define tlx_692_c_h_35=242.5081603424121
#define tlx_611_c_h_3=242.68309735611749
#define tlx_611_c_h_23=242.68309735611749
#define tlx_680_c_h_22=242.5071005385962
#define tlx_692_c_h_23=242.5081603424121
#define tlx_671_c_h_16=242.5070985304125
#define tlx_671_c_h_28=242.5070985304125
#define tlx_692_c_h_6=242.5081603424121
#define tlx_611_c_h_22=242.68309735611749
#define tlx_680_c_h_12=242.5071005385962
#define tlx_684_c_h_5=242.584795769412
#define tlx_684_c_h_13=242.584795769412
#define tlx_611_c_h_2=242.68309735611749
#define tlx_611_c_h_9=242.68309735611749
#define tlx_671_c_h_5=242.5070985304125
#define tlx_671_c_h_11=242.5070985304125
#define tlx_671_c_h_3=242.5070985304125
#define tlx_684_c_h_2=242.584795769412
#define tlx_675_c_h_19=242.67011874283511
#define tlx_684_c_h_12=242.584795769412
#define tlx_684_c_h_3=242.584795769412
#define tlx_675_c_h_26=242.67011874283511
#define tlx_680_c_h_21=242.5071005385962
#define tlx_675_c_h_22=242.67011874283511
#define tlx_680_c_h_19=242.5071005385962
#define tlx_692_c_h_31=242.5081603424121
#define tlx_611_c_h_31=242.68309735611749
#define tlx_684_c_h_39=242.584795769412
#define tlx_684_c_h_40=242.584795769412
#define tlx_671_c_h_39=242.5070985304125
#define tlx_675_c_h_17=242.67011874283511
#define tlx_680_c_h_34=242.5071005385962
#define tlx_692_c_h_27=242.5081603424121
#define tlx_680_c_h_31=242.5071005385962
#define tlx_680_c_h_23=242.5071005385962
#define tlx_671_c_h_35=242.5070985304125
#define tlx_680_c_h_2=242.5071005385962
#define tlx_684_c_h_23=242.584795769412
#define tlx_684_c_h_31=242.584795769412
#define tlx_684_c_h_29=242.584795769412
#define tlx_671_c_h_1=242.5070985304125
#define tlx_692_c_h_26=242.5081603424121
#define tlx_671_c_h_32=242.5070985304125
#define tlx_692_c_h_16=242.5081603424121
#define tlx_671_c_h_14=242.5070985304125
#define tlx_684_c_h_18=242.584795769412
#define tlx_611_c_h_40=242.68309735611749
#define tlx_671_c_h_36=242.5070985304125
#define tlx_611_c_h_39=242.68309735611749
