
clock {
    starttime '2023-05-19 17:00:00';
    stoptime '2023-05-19 17:10:00';
}
module generators;
module tape;
module powerflow {
    line_capacitance TRUE;
    solver_method NR;
}

#define tlx_652_a_h_1=220
#define tlx_652_a_h_2=240
#define tlx_652_a_h_3=240
#define tlx_652_a_h_4=240
#define tlx_652_a_h_5=240
#define tlx_652_a_h_6=240
#define tlx_652_a_h_7=240
#define tlx_652_a_h_8=240
#define tlx_652_a_h_9=240
#define tlx_652_a_h_10=240
#define tlx_652_a_h_11=240
#define tlx_652_a_h_12=240
#define tlx_652_a_h_13=240
#define tlx_652_a_h_14=240
#define tlx_652_a_h_15=240
#define tlx_652_a_h_16=240
#define tlx_652_a_h_17=240
#define tlx_652_a_h_18=240
#define tlx_652_a_h_19=240
#define tlx_652_a_h_20=240
#define tlx_652_a_h_21=240
#define tlx_652_a_h_22=240
#define tlx_652_a_h_23=240
#define tlx_652_a_h_24=240
#define tlx_652_a_h_25=240
#define tlx_652_a_h_26=240
#define tlx_652_a_h_27=240
#define tlx_652_a_h_28=240
#define tlx_652_a_h_29=240
#define tlx_652_a_h_30=240
#define tlx_652_a_h_31=240
#define tlx_652_a_h_32=240
#define tlx_652_a_h_33=240
#define tlx_652_a_h_34=240
#define tlx_652_a_h_35=240
#define tlx_652_a_h_36=240
#define tlx_652_a_h_37=240
#define tlx_652_a_h_38=240
#define tlx_652_a_h_39=240
#define tlx_652_a_h_40=240
#define tlx_611_c_h_1=240
#define tlx_611_c_h_2=240
#define tlx_611_c_h_3=240
#define tlx_611_c_h_4=240
#define tlx_611_c_h_5=240
#define tlx_611_c_h_6=240
#define tlx_611_c_h_7=240
#define tlx_611_c_h_8=240
#define tlx_611_c_h_9=240
#define tlx_611_c_h_10=240
#define tlx_611_c_h_11=240
#define tlx_611_c_h_12=240
#define tlx_611_c_h_13=240
#define tlx_611_c_h_14=240
#define tlx_611_c_h_15=240
#define tlx_611_c_h_16=240
#define tlx_611_c_h_17=240
#define tlx_611_c_h_18=240
#define tlx_611_c_h_19=240
#define tlx_611_c_h_20=240
#define tlx_611_c_h_21=240
#define tlx_611_c_h_22=240
#define tlx_611_c_h_23=240
#define tlx_611_c_h_24=240
#define tlx_611_c_h_25=240
#define tlx_611_c_h_26=240
#define tlx_611_c_h_27=240
#define tlx_611_c_h_28=240
#define tlx_611_c_h_29=240
#define tlx_611_c_h_30=240
#define tlx_611_c_h_31=240
#define tlx_611_c_h_32=240
#define tlx_611_c_h_33=240
#define tlx_611_c_h_34=240
#define tlx_611_c_h_35=240
#define tlx_611_c_h_36=240
#define tlx_611_c_h_37=240
#define tlx_611_c_h_38=240
#define tlx_611_c_h_39=240
#define tlx_611_c_h_40=240
#define tlx_684_a_h_1=240
#define tlx_684_a_h_2=240
#define tlx_684_a_h_3=240
#define tlx_684_a_h_4=240
#define tlx_684_a_h_5=240
#define tlx_684_a_h_6=240
#define tlx_684_a_h_7=240
#define tlx_684_a_h_8=240
#define tlx_684_a_h_9=240
#define tlx_684_a_h_10=240
#define tlx_684_a_h_11=240
#define tlx_684_a_h_12=240
#define tlx_684_a_h_13=240
#define tlx_684_a_h_14=240
#define tlx_684_a_h_15=240
#define tlx_684_a_h_16=240
#define tlx_684_a_h_17=240
#define tlx_684_a_h_18=240
#define tlx_684_a_h_19=240
#define tlx_684_a_h_20=240
#define tlx_684_a_h_21=240
#define tlx_684_a_h_22=240
#define tlx_684_a_h_23=240
#define tlx_684_a_h_24=240
#define tlx_684_a_h_25=240
#define tlx_684_a_h_26=240
#define tlx_684_a_h_27=240
#define tlx_684_a_h_28=240
#define tlx_684_a_h_29=240
#define tlx_684_a_h_30=240
#define tlx_684_a_h_31=240
#define tlx_684_a_h_32=240
#define tlx_684_a_h_33=240
#define tlx_684_a_h_34=240
#define tlx_684_a_h_35=240
#define tlx_684_a_h_36=240
#define tlx_684_a_h_37=240
#define tlx_684_a_h_38=240
#define tlx_684_a_h_39=240
#define tlx_684_a_h_40=240
#define tlx_684_c_h_1=240
#define tlx_684_c_h_2=240
#define tlx_684_c_h_3=240
#define tlx_684_c_h_4=240
#define tlx_684_c_h_5=240
#define tlx_684_c_h_6=240
#define tlx_684_c_h_7=240
#define tlx_684_c_h_8=240
#define tlx_684_c_h_9=240
#define tlx_684_c_h_10=240
#define tlx_684_c_h_11=240
#define tlx_684_c_h_12=240
#define tlx_684_c_h_13=240
#define tlx_684_c_h_14=240
#define tlx_684_c_h_15=240
#define tlx_684_c_h_16=240
#define tlx_684_c_h_17=240
#define tlx_684_c_h_18=240
#define tlx_684_c_h_19=240
#define tlx_684_c_h_20=240
#define tlx_684_c_h_21=240
#define tlx_684_c_h_22=240
#define tlx_684_c_h_23=240
#define tlx_684_c_h_24=240
#define tlx_684_c_h_25=240
#define tlx_684_c_h_26=240
#define tlx_684_c_h_27=240
#define tlx_684_c_h_28=240
#define tlx_684_c_h_29=240
#define tlx_684_c_h_30=240
#define tlx_684_c_h_31=240
#define tlx_684_c_h_32=240
#define tlx_684_c_h_33=240
#define tlx_684_c_h_34=240
#define tlx_684_c_h_35=240
#define tlx_684_c_h_36=240
#define tlx_684_c_h_37=240
#define tlx_684_c_h_38=240
#define tlx_684_c_h_39=240
#define tlx_684_c_h_40=240
#define tlx_645_b_h_1=240
#define tlx_645_b_h_2=240
#define tlx_645_b_h_3=240
#define tlx_645_b_h_4=240
#define tlx_645_b_h_5=240
#define tlx_645_b_h_6=240
#define tlx_645_b_h_7=240
#define tlx_645_b_h_8=240
#define tlx_645_b_h_9=240
#define tlx_645_b_h_10=240
#define tlx_645_b_h_11=240
#define tlx_645_b_h_12=240
#define tlx_645_b_h_13=240
#define tlx_645_b_h_14=240
#define tlx_645_b_h_15=240
#define tlx_645_b_h_16=240
#define tlx_645_b_h_17=240
#define tlx_645_b_h_18=240
#define tlx_645_b_h_19=240
#define tlx_645_b_h_20=240
#define tlx_645_b_h_21=240
#define tlx_645_b_h_22=240
#define tlx_645_b_h_23=240
#define tlx_645_b_h_24=240
#define tlx_645_b_h_25=240
#define tlx_645_b_h_26=240
#define tlx_645_b_h_27=240
#define tlx_645_b_h_28=240
#define tlx_645_b_h_29=240
#define tlx_645_b_h_30=240
#define tlx_645_b_h_31=240
#define tlx_645_b_h_32=240
#define tlx_645_b_h_33=240
#define tlx_645_b_h_34=240
#define tlx_645_b_h_35=240
#define tlx_645_b_h_36=240
#define tlx_645_b_h_37=240
#define tlx_645_b_h_38=240
#define tlx_645_b_h_39=240
#define tlx_645_b_h_40=240
#define tlx_645_c_h_1=240
#define tlx_645_c_h_2=240
#define tlx_645_c_h_3=240
#define tlx_645_c_h_4=240
#define tlx_645_c_h_5=240
#define tlx_645_c_h_6=240
#define tlx_645_c_h_7=240
#define tlx_645_c_h_8=240
#define tlx_645_c_h_9=240
#define tlx_645_c_h_10=240
#define tlx_645_c_h_11=240
#define tlx_645_c_h_12=240
#define tlx_645_c_h_13=240
#define tlx_645_c_h_14=240
#define tlx_645_c_h_15=240
#define tlx_645_c_h_16=240
#define tlx_645_c_h_17=240
#define tlx_645_c_h_18=240
#define tlx_645_c_h_19=240
#define tlx_645_c_h_20=240
#define tlx_645_c_h_21=240
#define tlx_645_c_h_22=240
#define tlx_645_c_h_23=240
#define tlx_645_c_h_24=240
#define tlx_645_c_h_25=240
#define tlx_645_c_h_26=240
#define tlx_645_c_h_27=240
#define tlx_645_c_h_28=240
#define tlx_645_c_h_29=240
#define tlx_645_c_h_30=240
#define tlx_645_c_h_31=240
#define tlx_645_c_h_32=240
#define tlx_645_c_h_33=240
#define tlx_645_c_h_34=240
#define tlx_645_c_h_35=240
#define tlx_645_c_h_36=240
#define tlx_645_c_h_37=240
#define tlx_645_c_h_38=240
#define tlx_645_c_h_39=240
#define tlx_645_c_h_40=240
#define tlx_633_a_h_1=240
#define tlx_633_a_h_2=240
#define tlx_633_a_h_3=240
#define tlx_633_a_h_4=240
#define tlx_633_a_h_5=240
#define tlx_633_a_h_6=240
#define tlx_633_a_h_7=240
#define tlx_633_a_h_8=240
#define tlx_633_a_h_9=240
#define tlx_633_a_h_10=240
#define tlx_633_a_h_11=240
#define tlx_633_a_h_12=240
#define tlx_633_a_h_13=240
#define tlx_633_a_h_14=240
#define tlx_633_a_h_15=240
#define tlx_633_a_h_16=240
#define tlx_633_a_h_17=240
#define tlx_633_a_h_18=240
#define tlx_633_a_h_19=240
#define tlx_633_a_h_20=240
#define tlx_633_a_h_21=240
#define tlx_633_a_h_22=240
#define tlx_633_a_h_23=240
#define tlx_633_a_h_24=240
#define tlx_633_a_h_25=240
#define tlx_633_a_h_26=240
#define tlx_633_a_h_27=240
#define tlx_633_a_h_28=240
#define tlx_633_a_h_29=240
#define tlx_633_a_h_30=240
#define tlx_633_a_h_31=240
#define tlx_633_a_h_32=240
#define tlx_633_a_h_33=240
#define tlx_633_a_h_34=240
#define tlx_633_a_h_35=240
#define tlx_633_a_h_36=240
#define tlx_633_a_h_37=240
#define tlx_633_a_h_38=240
#define tlx_633_a_h_39=240
#define tlx_633_a_h_40=240
#define tlx_633_b_h_1=240
#define tlx_633_b_h_2=240
#define tlx_633_b_h_3=240
#define tlx_633_b_h_4=240
#define tlx_633_b_h_5=240
#define tlx_633_b_h_6=240
#define tlx_633_b_h_7=240
#define tlx_633_b_h_8=240
#define tlx_633_b_h_9=240
#define tlx_633_b_h_10=240
#define tlx_633_b_h_11=240
#define tlx_633_b_h_12=240
#define tlx_633_b_h_13=240
#define tlx_633_b_h_14=240
#define tlx_633_b_h_15=240
#define tlx_633_b_h_16=240
#define tlx_633_b_h_17=240
#define tlx_633_b_h_18=240
#define tlx_633_b_h_19=240
#define tlx_633_b_h_20=240
#define tlx_633_b_h_21=240
#define tlx_633_b_h_22=240
#define tlx_633_b_h_23=240
#define tlx_633_b_h_24=240
#define tlx_633_b_h_25=240
#define tlx_633_b_h_26=240
#define tlx_633_b_h_27=240
#define tlx_633_b_h_28=240
#define tlx_633_b_h_29=240
#define tlx_633_b_h_30=240
#define tlx_633_b_h_31=240
#define tlx_633_b_h_32=240
#define tlx_633_b_h_33=240
#define tlx_633_b_h_34=240
#define tlx_633_b_h_35=240
#define tlx_633_b_h_36=240
#define tlx_633_b_h_37=240
#define tlx_633_b_h_38=240
#define tlx_633_b_h_39=240
#define tlx_633_b_h_40=240
#define tlx_633_c_h_1=240
#define tlx_633_c_h_2=240
#define tlx_633_c_h_3=240
#define tlx_633_c_h_4=240
#define tlx_633_c_h_5=240
#define tlx_633_c_h_6=240
#define tlx_633_c_h_7=240
#define tlx_633_c_h_8=240
#define tlx_633_c_h_9=240
#define tlx_633_c_h_10=240
#define tlx_633_c_h_11=240
#define tlx_633_c_h_12=240
#define tlx_633_c_h_13=240
#define tlx_633_c_h_14=240
#define tlx_633_c_h_15=240
#define tlx_633_c_h_16=240
#define tlx_633_c_h_17=240
#define tlx_633_c_h_18=240
#define tlx_633_c_h_19=240
#define tlx_633_c_h_20=240
#define tlx_633_c_h_21=240
#define tlx_633_c_h_22=240
#define tlx_633_c_h_23=240
#define tlx_633_c_h_24=240
#define tlx_633_c_h_25=240
#define tlx_633_c_h_26=240
#define tlx_633_c_h_27=240
#define tlx_633_c_h_28=240
#define tlx_633_c_h_29=240
#define tlx_633_c_h_30=240
#define tlx_633_c_h_31=240
#define tlx_633_c_h_32=240
#define tlx_633_c_h_33=240
#define tlx_633_c_h_34=240
#define tlx_633_c_h_35=240
#define tlx_633_c_h_36=240
#define tlx_633_c_h_37=240
#define tlx_633_c_h_38=240
#define tlx_633_c_h_39=240
#define tlx_633_c_h_40=240
#define tlx_632_a_h_1=240
#define tlx_632_a_h_2=240
#define tlx_632_a_h_3=240
#define tlx_632_a_h_4=240
#define tlx_632_a_h_5=240
#define tlx_632_a_h_6=240
#define tlx_632_a_h_7=240
#define tlx_632_a_h_8=240
#define tlx_632_a_h_9=240
#define tlx_632_a_h_10=240
#define tlx_632_a_h_11=240
#define tlx_632_a_h_12=240
#define tlx_632_a_h_13=240
#define tlx_632_a_h_14=240
#define tlx_632_a_h_15=240
#define tlx_632_a_h_16=240
#define tlx_632_a_h_17=240
#define tlx_632_a_h_18=240
#define tlx_632_a_h_19=240
#define tlx_632_a_h_20=240
#define tlx_632_a_h_21=240
#define tlx_632_a_h_22=240
#define tlx_632_a_h_23=240
#define tlx_632_a_h_24=240
#define tlx_632_a_h_25=240
#define tlx_632_a_h_26=240
#define tlx_632_a_h_27=240
#define tlx_632_a_h_28=240
#define tlx_632_a_h_29=240
#define tlx_632_a_h_30=240
#define tlx_632_a_h_31=240
#define tlx_632_a_h_32=240
#define tlx_632_a_h_33=240
#define tlx_632_a_h_34=240
#define tlx_632_a_h_35=240
#define tlx_632_a_h_36=240
#define tlx_632_a_h_37=240
#define tlx_632_a_h_38=240
#define tlx_632_a_h_39=240
#define tlx_632_a_h_40=240
#define tlx_632_b_h_1=240
#define tlx_632_b_h_2=240
#define tlx_632_b_h_3=240
#define tlx_632_b_h_4=240
#define tlx_632_b_h_5=240
#define tlx_632_b_h_6=240
#define tlx_632_b_h_7=240
#define tlx_632_b_h_8=240
#define tlx_632_b_h_9=240
#define tlx_632_b_h_10=240
#define tlx_632_b_h_11=240
#define tlx_632_b_h_12=240
#define tlx_632_b_h_13=240
#define tlx_632_b_h_14=240
#define tlx_632_b_h_15=240
#define tlx_632_b_h_16=240
#define tlx_632_b_h_17=240
#define tlx_632_b_h_18=240
#define tlx_632_b_h_19=240
#define tlx_632_b_h_20=240
#define tlx_632_b_h_21=240
#define tlx_632_b_h_22=240
#define tlx_632_b_h_23=240
#define tlx_632_b_h_24=240
#define tlx_632_b_h_25=240
#define tlx_632_b_h_26=240
#define tlx_632_b_h_27=240
#define tlx_632_b_h_28=240
#define tlx_632_b_h_29=240
#define tlx_632_b_h_30=240
#define tlx_632_b_h_31=240
#define tlx_632_b_h_32=240
#define tlx_632_b_h_33=240
#define tlx_632_b_h_34=240
#define tlx_632_b_h_35=240
#define tlx_632_b_h_36=240
#define tlx_632_b_h_37=240
#define tlx_632_b_h_38=240
#define tlx_632_b_h_39=240
#define tlx_632_b_h_40=240
#define tlx_632_c_h_1=240
#define tlx_632_c_h_2=240
#define tlx_632_c_h_3=240
#define tlx_632_c_h_4=240
#define tlx_632_c_h_5=240
#define tlx_632_c_h_6=240
#define tlx_632_c_h_7=240
#define tlx_632_c_h_8=240
#define tlx_632_c_h_9=240
#define tlx_632_c_h_10=240
#define tlx_632_c_h_11=240
#define tlx_632_c_h_12=240
#define tlx_632_c_h_13=240
#define tlx_632_c_h_14=240
#define tlx_632_c_h_15=240
#define tlx_632_c_h_16=240
#define tlx_632_c_h_17=240
#define tlx_632_c_h_18=240
#define tlx_632_c_h_19=240
#define tlx_632_c_h_20=240
#define tlx_632_c_h_21=240
#define tlx_632_c_h_22=240
#define tlx_632_c_h_23=240
#define tlx_632_c_h_24=240
#define tlx_632_c_h_25=240
#define tlx_632_c_h_26=240
#define tlx_632_c_h_27=240
#define tlx_632_c_h_28=240
#define tlx_632_c_h_29=240
#define tlx_632_c_h_30=240
#define tlx_632_c_h_31=240
#define tlx_632_c_h_32=240
#define tlx_632_c_h_33=240
#define tlx_632_c_h_34=240
#define tlx_632_c_h_35=240
#define tlx_632_c_h_36=240
#define tlx_632_c_h_37=240
#define tlx_632_c_h_38=240
#define tlx_632_c_h_39=240
#define tlx_632_c_h_40=240
#define tlx_692_a_h_1=240
#define tlx_692_a_h_2=240
#define tlx_692_a_h_3=240
#define tlx_692_a_h_4=240
#define tlx_692_a_h_5=240
#define tlx_692_a_h_6=240
#define tlx_692_a_h_7=240
#define tlx_692_a_h_8=240
#define tlx_692_a_h_9=240
#define tlx_692_a_h_10=240
#define tlx_692_a_h_11=240
#define tlx_692_a_h_12=240
#define tlx_692_a_h_13=240
#define tlx_692_a_h_14=240
#define tlx_692_a_h_15=240
#define tlx_692_a_h_16=240
#define tlx_692_a_h_17=240
#define tlx_692_a_h_18=240
#define tlx_692_a_h_19=240
#define tlx_692_a_h_20=240
#define tlx_692_a_h_21=240
#define tlx_692_a_h_22=240
#define tlx_692_a_h_23=240
#define tlx_692_a_h_24=240
#define tlx_692_a_h_25=240
#define tlx_692_a_h_26=240
#define tlx_692_a_h_27=240
#define tlx_692_a_h_28=240
#define tlx_692_a_h_29=240
#define tlx_692_a_h_30=240
#define tlx_692_a_h_31=240
#define tlx_692_a_h_32=240
#define tlx_692_a_h_33=240
#define tlx_692_a_h_34=240
#define tlx_692_a_h_35=240
#define tlx_692_a_h_36=240
#define tlx_692_a_h_37=240
#define tlx_692_a_h_38=240
#define tlx_692_a_h_39=240
#define tlx_692_a_h_40=240
#define tlx_692_b_h_1=240
#define tlx_692_b_h_2=240
#define tlx_692_b_h_3=240
#define tlx_692_b_h_4=240
#define tlx_692_b_h_5=240
#define tlx_692_b_h_6=240
#define tlx_692_b_h_7=240
#define tlx_692_b_h_8=240
#define tlx_692_b_h_9=240
#define tlx_692_b_h_10=240
#define tlx_692_b_h_11=240
#define tlx_692_b_h_12=240
#define tlx_692_b_h_13=240
#define tlx_692_b_h_14=240
#define tlx_692_b_h_15=240
#define tlx_692_b_h_16=240
#define tlx_692_b_h_17=240
#define tlx_692_b_h_18=240
#define tlx_692_b_h_19=240
#define tlx_692_b_h_20=240
#define tlx_692_b_h_21=240
#define tlx_692_b_h_22=240
#define tlx_692_b_h_23=240
#define tlx_692_b_h_24=240
#define tlx_692_b_h_25=240
#define tlx_692_b_h_26=240
#define tlx_692_b_h_27=240
#define tlx_692_b_h_28=240
#define tlx_692_b_h_29=240
#define tlx_692_b_h_30=240
#define tlx_692_b_h_31=240
#define tlx_692_b_h_32=240
#define tlx_692_b_h_33=240
#define tlx_692_b_h_34=240
#define tlx_692_b_h_35=240
#define tlx_692_b_h_36=240
#define tlx_692_b_h_37=240
#define tlx_692_b_h_38=240
#define tlx_692_b_h_39=240
#define tlx_692_b_h_40=240
#define tlx_692_c_h_1=240
#define tlx_692_c_h_2=240
#define tlx_692_c_h_3=240
#define tlx_692_c_h_4=240
#define tlx_692_c_h_5=240
#define tlx_692_c_h_6=240
#define tlx_692_c_h_7=240
#define tlx_692_c_h_8=240
#define tlx_692_c_h_9=240
#define tlx_692_c_h_10=240
#define tlx_692_c_h_11=240
#define tlx_692_c_h_12=240
#define tlx_692_c_h_13=240
#define tlx_692_c_h_14=240
#define tlx_692_c_h_15=240
#define tlx_692_c_h_16=240
#define tlx_692_c_h_17=240
#define tlx_692_c_h_18=240
#define tlx_692_c_h_19=240
#define tlx_692_c_h_20=240
#define tlx_692_c_h_21=240
#define tlx_692_c_h_22=240
#define tlx_692_c_h_23=240
#define tlx_692_c_h_24=240
#define tlx_692_c_h_25=240
#define tlx_692_c_h_26=240
#define tlx_692_c_h_27=240
#define tlx_692_c_h_28=240
#define tlx_692_c_h_29=240
#define tlx_692_c_h_30=240
#define tlx_692_c_h_31=240
#define tlx_692_c_h_32=240
#define tlx_692_c_h_33=240
#define tlx_692_c_h_34=240
#define tlx_692_c_h_35=240
#define tlx_692_c_h_36=240
#define tlx_692_c_h_37=240
#define tlx_692_c_h_38=240
#define tlx_692_c_h_39=240
#define tlx_692_c_h_40=240
#define tlx_675_a_h_1=240
#define tlx_675_a_h_2=240
#define tlx_675_a_h_3=240
#define tlx_675_a_h_4=240
#define tlx_675_a_h_5=240
#define tlx_675_a_h_6=240
#define tlx_675_a_h_7=240
#define tlx_675_a_h_8=240
#define tlx_675_a_h_9=240
#define tlx_675_a_h_10=240
#define tlx_675_a_h_11=240
#define tlx_675_a_h_12=240
#define tlx_675_a_h_13=240
#define tlx_675_a_h_14=240
#define tlx_675_a_h_15=240
#define tlx_675_a_h_16=240
#define tlx_675_a_h_17=240
#define tlx_675_a_h_18=240
#define tlx_675_a_h_19=240
#define tlx_675_a_h_20=240
#define tlx_675_a_h_21=240
#define tlx_675_a_h_22=240
#define tlx_675_a_h_23=240
#define tlx_675_a_h_24=240
#define tlx_675_a_h_25=240
#define tlx_675_a_h_26=240
#define tlx_675_a_h_27=240
#define tlx_675_a_h_28=240
#define tlx_675_a_h_29=240
#define tlx_675_a_h_30=240
#define tlx_675_a_h_31=240
#define tlx_675_a_h_32=240
#define tlx_675_a_h_33=240
#define tlx_675_a_h_34=240
#define tlx_675_a_h_35=240
#define tlx_675_a_h_36=240
#define tlx_675_a_h_37=240
#define tlx_675_a_h_38=240
#define tlx_675_a_h_39=240
#define tlx_675_a_h_40=240
#define tlx_675_b_h_1=240
#define tlx_675_b_h_2=240
#define tlx_675_b_h_3=240
#define tlx_675_b_h_4=240
#define tlx_675_b_h_5=240
#define tlx_675_b_h_6=240
#define tlx_675_b_h_7=240
#define tlx_675_b_h_8=240
#define tlx_675_b_h_9=240
#define tlx_675_b_h_10=240
#define tlx_675_b_h_11=240
#define tlx_675_b_h_12=240
#define tlx_675_b_h_13=240
#define tlx_675_b_h_14=240
#define tlx_675_b_h_15=240
#define tlx_675_b_h_16=240
#define tlx_675_b_h_17=240
#define tlx_675_b_h_18=240
#define tlx_675_b_h_19=240
#define tlx_675_b_h_20=240
#define tlx_675_b_h_21=240
#define tlx_675_b_h_22=240
#define tlx_675_b_h_23=240
#define tlx_675_b_h_24=240
#define tlx_675_b_h_25=240
#define tlx_675_b_h_26=240
#define tlx_675_b_h_27=240
#define tlx_675_b_h_28=240
#define tlx_675_b_h_29=240
#define tlx_675_b_h_30=240
#define tlx_675_b_h_31=240
#define tlx_675_b_h_32=240
#define tlx_675_b_h_33=240
#define tlx_675_b_h_34=240
#define tlx_675_b_h_35=240
#define tlx_675_b_h_36=240
#define tlx_675_b_h_37=240
#define tlx_675_b_h_38=240
#define tlx_675_b_h_39=240
#define tlx_675_b_h_40=240
#define tlx_675_c_h_1=240
#define tlx_675_c_h_2=240
#define tlx_675_c_h_3=240
#define tlx_675_c_h_4=240
#define tlx_675_c_h_5=240
#define tlx_675_c_h_6=240
#define tlx_675_c_h_7=240
#define tlx_675_c_h_8=240
#define tlx_675_c_h_9=240
#define tlx_675_c_h_10=240
#define tlx_675_c_h_11=240
#define tlx_675_c_h_12=240
#define tlx_675_c_h_13=240
#define tlx_675_c_h_14=240
#define tlx_675_c_h_15=240
#define tlx_675_c_h_16=240
#define tlx_675_c_h_17=240
#define tlx_675_c_h_18=240
#define tlx_675_c_h_19=240
#define tlx_675_c_h_20=240
#define tlx_675_c_h_21=240
#define tlx_675_c_h_22=240
#define tlx_675_c_h_23=240
#define tlx_675_c_h_24=240
#define tlx_675_c_h_25=240
#define tlx_675_c_h_26=240
#define tlx_675_c_h_27=240
#define tlx_675_c_h_28=240
#define tlx_675_c_h_29=240
#define tlx_675_c_h_30=240
#define tlx_675_c_h_31=240
#define tlx_675_c_h_32=240
#define tlx_675_c_h_33=240
#define tlx_675_c_h_34=240
#define tlx_675_c_h_35=240
#define tlx_675_c_h_36=240
#define tlx_675_c_h_37=240
#define tlx_675_c_h_38=240
#define tlx_675_c_h_39=240
#define tlx_675_c_h_40=240
#define tlx_671_a_h_1=240
#define tlx_671_a_h_2=240
#define tlx_671_a_h_3=240
#define tlx_671_a_h_4=240
#define tlx_671_a_h_5=240
#define tlx_671_a_h_6=240
#define tlx_671_a_h_7=240
#define tlx_671_a_h_8=240
#define tlx_671_a_h_9=240
#define tlx_671_a_h_10=240
#define tlx_671_a_h_11=240
#define tlx_671_a_h_12=240
#define tlx_671_a_h_13=240
#define tlx_671_a_h_14=240
#define tlx_671_a_h_15=240
#define tlx_671_a_h_16=240
#define tlx_671_a_h_17=240
#define tlx_671_a_h_18=240
#define tlx_671_a_h_19=240
#define tlx_671_a_h_20=240
#define tlx_671_a_h_21=240
#define tlx_671_a_h_22=240
#define tlx_671_a_h_23=240
#define tlx_671_a_h_24=240
#define tlx_671_a_h_25=240
#define tlx_671_a_h_26=240
#define tlx_671_a_h_27=240
#define tlx_671_a_h_28=240
#define tlx_671_a_h_29=240
#define tlx_671_a_h_30=240
#define tlx_671_a_h_31=240
#define tlx_671_a_h_32=240
#define tlx_671_a_h_33=240
#define tlx_671_a_h_34=240
#define tlx_671_a_h_35=240
#define tlx_671_a_h_36=240
#define tlx_671_a_h_37=240
#define tlx_671_a_h_38=240
#define tlx_671_a_h_39=240
#define tlx_671_a_h_40=240
#define tlx_671_b_h_1=240
#define tlx_671_b_h_2=240
#define tlx_671_b_h_3=240
#define tlx_671_b_h_4=240
#define tlx_671_b_h_5=240
#define tlx_671_b_h_6=240
#define tlx_671_b_h_7=240
#define tlx_671_b_h_8=240
#define tlx_671_b_h_9=240
#define tlx_671_b_h_10=240
#define tlx_671_b_h_11=240
#define tlx_671_b_h_12=240
#define tlx_671_b_h_13=240
#define tlx_671_b_h_14=240
#define tlx_671_b_h_15=240
#define tlx_671_b_h_16=240
#define tlx_671_b_h_17=240
#define tlx_671_b_h_18=240
#define tlx_671_b_h_19=240
#define tlx_671_b_h_20=240
#define tlx_671_b_h_21=240
#define tlx_671_b_h_22=240
#define tlx_671_b_h_23=240
#define tlx_671_b_h_24=240
#define tlx_671_b_h_25=240
#define tlx_671_b_h_26=240
#define tlx_671_b_h_27=240
#define tlx_671_b_h_28=240
#define tlx_671_b_h_29=240
#define tlx_671_b_h_30=240
#define tlx_671_b_h_31=240
#define tlx_671_b_h_32=240
#define tlx_671_b_h_33=240
#define tlx_671_b_h_34=240
#define tlx_671_b_h_35=240
#define tlx_671_b_h_36=240
#define tlx_671_b_h_37=240
#define tlx_671_b_h_38=240
#define tlx_671_b_h_39=240
#define tlx_671_b_h_40=240
#define tlx_671_c_h_1=240
#define tlx_671_c_h_2=240
#define tlx_671_c_h_3=240
#define tlx_671_c_h_4=240
#define tlx_671_c_h_5=240
#define tlx_671_c_h_6=240
#define tlx_671_c_h_7=240
#define tlx_671_c_h_8=240
#define tlx_671_c_h_9=240
#define tlx_671_c_h_10=240
#define tlx_671_c_h_11=240
#define tlx_671_c_h_12=240
#define tlx_671_c_h_13=240
#define tlx_671_c_h_14=240
#define tlx_671_c_h_15=240
#define tlx_671_c_h_16=240
#define tlx_671_c_h_17=240
#define tlx_671_c_h_18=240
#define tlx_671_c_h_19=240
#define tlx_671_c_h_20=240
#define tlx_671_c_h_21=240
#define tlx_671_c_h_22=240
#define tlx_671_c_h_23=240
#define tlx_671_c_h_24=240
#define tlx_671_c_h_25=240
#define tlx_671_c_h_26=240
#define tlx_671_c_h_27=240
#define tlx_671_c_h_28=240
#define tlx_671_c_h_29=240
#define tlx_671_c_h_30=240
#define tlx_671_c_h_31=240
#define tlx_671_c_h_32=240
#define tlx_671_c_h_33=240
#define tlx_671_c_h_34=240
#define tlx_671_c_h_35=240
#define tlx_671_c_h_36=240
#define tlx_671_c_h_37=240
#define tlx_671_c_h_38=240
#define tlx_671_c_h_39=240
#define tlx_671_c_h_40=240
#define tlx_680_a_h_1=240
#define tlx_680_a_h_2=240
#define tlx_680_a_h_3=240
#define tlx_680_a_h_4=240
#define tlx_680_a_h_5=240
#define tlx_680_a_h_6=240
#define tlx_680_a_h_7=240
#define tlx_680_a_h_8=240
#define tlx_680_a_h_9=240
#define tlx_680_a_h_10=240
#define tlx_680_a_h_11=240
#define tlx_680_a_h_12=240
#define tlx_680_a_h_13=240
#define tlx_680_a_h_14=240
#define tlx_680_a_h_15=240
#define tlx_680_a_h_16=240
#define tlx_680_a_h_17=240
#define tlx_680_a_h_18=240
#define tlx_680_a_h_19=240
#define tlx_680_a_h_20=240
#define tlx_680_a_h_21=240
#define tlx_680_a_h_22=240
#define tlx_680_a_h_23=240
#define tlx_680_a_h_24=240
#define tlx_680_a_h_25=240
#define tlx_680_a_h_26=240
#define tlx_680_a_h_27=240
#define tlx_680_a_h_28=240
#define tlx_680_a_h_29=240
#define tlx_680_a_h_30=240
#define tlx_680_a_h_31=240
#define tlx_680_a_h_32=240
#define tlx_680_a_h_33=240
#define tlx_680_a_h_34=240
#define tlx_680_a_h_35=240
#define tlx_680_a_h_36=240
#define tlx_680_a_h_37=240
#define tlx_680_a_h_38=240
#define tlx_680_a_h_39=240
#define tlx_680_a_h_40=240
#define tlx_680_b_h_1=240
#define tlx_680_b_h_2=240
#define tlx_680_b_h_3=240
#define tlx_680_b_h_4=240
#define tlx_680_b_h_5=240
#define tlx_680_b_h_6=240
#define tlx_680_b_h_7=240
#define tlx_680_b_h_8=240
#define tlx_680_b_h_9=240
#define tlx_680_b_h_10=240
#define tlx_680_b_h_11=240
#define tlx_680_b_h_12=240
#define tlx_680_b_h_13=240
#define tlx_680_b_h_14=240
#define tlx_680_b_h_15=240
#define tlx_680_b_h_16=240
#define tlx_680_b_h_17=240
#define tlx_680_b_h_18=240
#define tlx_680_b_h_19=240
#define tlx_680_b_h_20=240
#define tlx_680_b_h_21=240
#define tlx_680_b_h_22=240
#define tlx_680_b_h_23=240
#define tlx_680_b_h_24=240
#define tlx_680_b_h_25=240
#define tlx_680_b_h_26=240
#define tlx_680_b_h_27=240
#define tlx_680_b_h_28=240
#define tlx_680_b_h_29=240
#define tlx_680_b_h_30=240
#define tlx_680_b_h_31=240
#define tlx_680_b_h_32=240
#define tlx_680_b_h_33=240
#define tlx_680_b_h_34=240
#define tlx_680_b_h_35=240
#define tlx_680_b_h_36=240
#define tlx_680_b_h_37=240
#define tlx_680_b_h_38=240
#define tlx_680_b_h_39=240
#define tlx_680_b_h_40=240
#define tlx_680_c_h_1=240
#define tlx_680_c_h_2=240
#define tlx_680_c_h_3=240
#define tlx_680_c_h_4=240
#define tlx_680_c_h_5=240
#define tlx_680_c_h_6=240
#define tlx_680_c_h_7=240
#define tlx_680_c_h_8=240
#define tlx_680_c_h_9=240
#define tlx_680_c_h_10=240
#define tlx_680_c_h_11=240
#define tlx_680_c_h_12=240
#define tlx_680_c_h_13=240
#define tlx_680_c_h_14=240
#define tlx_680_c_h_15=240
#define tlx_680_c_h_16=240
#define tlx_680_c_h_17=240
#define tlx_680_c_h_18=240
#define tlx_680_c_h_19=240
#define tlx_680_c_h_20=240
#define tlx_680_c_h_21=240
#define tlx_680_c_h_22=240
#define tlx_680_c_h_23=240
#define tlx_680_c_h_24=240
#define tlx_680_c_h_25=240
#define tlx_680_c_h_26=240
#define tlx_680_c_h_27=240
#define tlx_680_c_h_28=240
#define tlx_680_c_h_29=240
#define tlx_680_c_h_30=240
#define tlx_680_c_h_31=240
#define tlx_680_c_h_32=240
#define tlx_680_c_h_33=240
#define tlx_680_c_h_34=240
#define tlx_680_c_h_35=240
#define tlx_680_c_h_36=240
#define tlx_680_c_h_37=240
#define tlx_680_c_h_38=240
#define tlx_680_c_h_39=240
#define tlx_680_c_h_40=240
#define VSOURCE=66395.28095680696
#include "./model_base.glm"