
clock {
    starttime '2023-05-19 17:00:00';
    stoptime '2023-05-19 17:10:00';
}
module generators;
module tape;
module powerflow {
    line_capacitance TRUE;
    solver_method NR;
}
#define VSOURCE=66395.28095680696
#include "./model_base.glm"
#define tlx_675_c_h_33=242.67011874283511
#define tlx_680_c_h_33=242.5071005385962
#define tlx_675_c_h_36=242.67011874283511
